<?xml version="1.0" encoding="UTF-8"?>

<!-- generated on Thu Jan 28 18:37:44 2021 by Eclipse SUMO duarouter Version 1.8.0
<configuration xmlns:xsi="http://www.w3.org/2001/XMLSchema-instance" xsi:noNamespaceSchemaLocation="http://sumo.dlr.de/xsd/duarouterConfiguration.xsd">

    <input>
        <net-file value="131_3Highway.net.xml"/>
        <route-files value="131_3Highway.flow.xml"/>
    </input>

    <output>
        <output-file value="131_3Highway.rou.xml"/>
        <alternatives-output value="131_3Highway.rou.alt.xml"/>
    </output>

    <time>
        <begin value="0"/>
        <end value="1000"/>
    </time>

    <report>
        <no-warnings value="true"/>
        <ignore-errors value="true"/>
        <no-step-log value="true"/>
    </report>

</configuration>
-->

<routes xmlns:xsi="http://www.w3.org/2001/XMLSchema-instance" xsi:noNamespaceSchemaLocation="http://sumo.dlr.de/xsd/routes_file.xsd">
    <vehicle id="0#0.0" depart="2.00" departPos="free" departSpeed="max">
        <route edges="gneE3"/>
    </vehicle>
    <vehicle id="0#2.0" depart="2.00" departPos="free" departSpeed="max">
        <route edges="gneE3"/>
    </vehicle>
    <vehicle id="0#4.0" depart="2.00" departPos="free" departSpeed="max">
        <route edges="gneE3"/>
    </vehicle>
    <vehicle id="1#3.0" depart="2.00" departPos="free" departSpeed="max">
        <route edges="gneE2"/>
    </vehicle>
    <vehicle id="0#1.0" depart="3.00" departPos="free" departSpeed="max">
        <route edges="gneE3"/>
    </vehicle>
    <vehicle id="0#3.0" depart="3.00" departPos="free" departSpeed="max">
        <route edges="gneE3"/>
    </vehicle>
    <vehicle id="1#1.0" depart="4.00" departPos="free" departSpeed="max">
        <route edges="gneE2"/>
    </vehicle>
    <vehicle id="0#0.1" depart="5.00" departPos="free" departSpeed="max">
        <route edges="gneE3"/>
    </vehicle>
    <vehicle id="1#2.0" depart="5.00" departPos="free" departSpeed="max">
        <route edges="gneE2"/>
    </vehicle>
    <vehicle id="1#1.1" depart="7.00" departPos="free" departSpeed="max">
        <route edges="gneE2"/>
    </vehicle>
    <vehicle id="0#1.1" depart="9.00" departPos="free" departSpeed="max">
        <route edges="gneE3"/>
    </vehicle>
    <vehicle id="0#0.2" depart="10.00" departPos="free" departSpeed="max">
        <route edges="gneE3"/>
    </vehicle>
    <vehicle id="0#3.1" depart="13.00" departPos="free" departSpeed="max">
        <route edges="gneE3"/>
    </vehicle>
    <vehicle id="0#0.3" depart="16.00" departPos="free" departSpeed="max">
        <route edges="gneE3"/>
    </vehicle>
    <vehicle id="1#4.0" depart="18.00" departPos="free" departSpeed="max">
        <route edges="gneE2"/>
    </vehicle>
    <vehicle id="1#1.2" depart="19.00" departPos="free" departSpeed="max">
        <route edges="gneE2"/>
    </vehicle>
    <vehicle id="1#2.1" depart="19.00" departPos="free" departSpeed="max">
        <route edges="gneE2"/>
    </vehicle>
    <vehicle id="0#0.4" depart="20.00" departPos="free" departSpeed="max">
        <route edges="gneE3"/>
    </vehicle>
    <vehicle id="0#4.1" depart="20.00" departPos="free" departSpeed="max">
        <route edges="gneE3"/>
    </vehicle>
    <vehicle id="0#1.2" depart="21.00" departPos="free" departSpeed="max">
        <route edges="gneE3"/>
    </vehicle>
    <vehicle id="1#2.2" depart="21.00" departPos="free" departSpeed="max">
        <route edges="gneE2"/>
    </vehicle>
    <vehicle id="1#4.1" depart="26.00" departPos="free" departSpeed="max">
        <route edges="gneE2"/>
    </vehicle>
    <vehicle id="1#1.3" depart="27.00" departPos="free" departSpeed="max">
        <route edges="gneE2"/>
    </vehicle>
    <vehicle id="0#4.2" depart="29.00" departPos="free" departSpeed="max">
        <route edges="gneE3"/>
    </vehicle>
    <vehicle id="0#0.5" depart="30.00" departPos="free" departSpeed="max">
        <route edges="gneE3"/>
    </vehicle>
    <vehicle id="1#0.0" depart="33.00" departPos="free" departSpeed="max">
        <route edges="gneE2"/>
    </vehicle>
    <vehicle id="1#4.2" depart="34.00" departPos="free" departSpeed="max">
        <route edges="gneE2"/>
    </vehicle>
    <vehicle id="0#0.6" depart="35.00" departPos="free" departSpeed="max">
        <route edges="gneE3"/>
    </vehicle>
    <vehicle id="0#4.3" depart="36.00" departPos="free" departSpeed="max">
        <route edges="gneE3"/>
    </vehicle>
    <vehicle id="1#1.4" depart="37.00" departPos="free" departSpeed="max">
        <route edges="gneE2"/>
    </vehicle>
    <vehicle id="1#3.1" depart="37.00" departPos="free" departSpeed="max">
        <route edges="gneE2"/>
    </vehicle>
    <vehicle id="1#4.3" depart="37.00" departPos="free" departSpeed="max">
        <route edges="gneE2"/>
    </vehicle>
    <vehicle id="0#1.3" depart="40.00" departPos="free" departSpeed="max">
        <route edges="gneE3"/>
    </vehicle>
    <vehicle id="1#0.1" depart="40.00" departPos="free" departSpeed="max">
        <route edges="gneE2"/>
    </vehicle>
    <vehicle id="0#1.4" depart="43.00" departPos="free" departSpeed="max">
        <route edges="gneE3"/>
    </vehicle>
    <vehicle id="0#1.5" depart="44.00" departPos="free" departSpeed="max">
        <route edges="gneE3"/>
    </vehicle>
    <vehicle id="0#1.6" depart="45.00" departPos="free" departSpeed="max">
        <route edges="gneE3"/>
    </vehicle>
    <vehicle id="0#3.2" depart="45.00" departPos="free" departSpeed="max">
        <route edges="gneE3"/>
    </vehicle>
    <vehicle id="1#4.4" depart="45.00" departPos="free" departSpeed="max">
        <route edges="gneE2"/>
    </vehicle>
    <vehicle id="0#2.1" depart="46.00" departPos="free" departSpeed="max">
        <route edges="gneE3"/>
    </vehicle>
    <vehicle id="1#4.5" depart="47.00" departPos="free" departSpeed="max">
        <route edges="gneE2"/>
    </vehicle>
    <vehicle id="0#1.7" depart="50.00" departPos="free" departSpeed="max">
        <route edges="gneE3"/>
    </vehicle>
    <vehicle id="0#3.3" depart="55.00" departPos="free" departSpeed="max">
        <route edges="gneE3"/>
    </vehicle>
    <vehicle id="0#3.4" depart="60.00" departPos="free" departSpeed="max">
        <route edges="gneE3"/>
    </vehicle>
    <vehicle id="1#1.5" depart="61.00" departPos="free" departSpeed="max">
        <route edges="gneE2"/>
    </vehicle>
    <vehicle id="0#0.7" depart="63.00" departPos="free" departSpeed="max">
        <route edges="gneE3"/>
    </vehicle>
    <vehicle id="0#4.4" depart="63.00" departPos="free" departSpeed="max">
        <route edges="gneE3"/>
    </vehicle>
    <vehicle id="1#1.6" depart="64.00" departPos="free" departSpeed="max">
        <route edges="gneE2"/>
    </vehicle>
    <vehicle id="0#2.2" depart="65.00" departPos="free" departSpeed="max">
        <route edges="gneE3"/>
    </vehicle>
    <vehicle id="0#0.8" depart="67.00" departPos="free" departSpeed="max">
        <route edges="gneE3"/>
    </vehicle>
    <vehicle id="1#4.6" depart="67.00" departPos="free" departSpeed="max">
        <route edges="gneE2"/>
    </vehicle>
    <vehicle id="1#0.2" depart="69.00" departPos="free" departSpeed="max">
        <route edges="gneE2"/>
    </vehicle>
    <vehicle id="0#1.8" depart="71.00" departPos="free" departSpeed="max">
        <route edges="gneE3"/>
    </vehicle>
    <vehicle id="0#3.5" depart="72.00" departPos="free" departSpeed="max">
        <route edges="gneE3"/>
    </vehicle>
    <vehicle id="1#0.3" depart="72.00" departPos="free" departSpeed="max">
        <route edges="gneE2"/>
    </vehicle>
    <vehicle id="1#1.7" depart="72.00" departPos="free" departSpeed="max">
        <route edges="gneE2"/>
    </vehicle>
    <vehicle id="1#2.3" depart="72.00" departPos="free" departSpeed="max">
        <route edges="gneE2"/>
    </vehicle>
    <vehicle id="1#3.2" depart="72.00" departPos="free" departSpeed="max">
        <route edges="gneE2"/>
    </vehicle>
    <vehicle id="0#2.3" depart="73.00" departPos="free" departSpeed="max">
        <route edges="gneE3"/>
    </vehicle>
    <vehicle id="0#4.5" depart="73.00" departPos="free" departSpeed="max">
        <route edges="gneE3"/>
    </vehicle>
    <vehicle id="0#1.9" depart="74.00" departPos="free" departSpeed="max">
        <route edges="gneE3"/>
    </vehicle>
    <vehicle id="1#0.4" depart="74.00" departPos="free" departSpeed="max">
        <route edges="gneE2"/>
    </vehicle>
    <vehicle id="0#0.9" depart="76.00" departPos="free" departSpeed="max">
        <route edges="gneE3"/>
    </vehicle>
    <vehicle id="0#4.6" depart="77.00" departPos="free" departSpeed="max">
        <route edges="gneE3"/>
    </vehicle>
    <vehicle id="0#3.6" depart="78.00" departPos="free" departSpeed="max">
        <route edges="gneE3"/>
    </vehicle>
    <vehicle id="1#0.5" depart="79.00" departPos="free" departSpeed="max">
        <route edges="gneE2"/>
    </vehicle>
    <vehicle id="0#1.10" depart="80.00" departPos="free" departSpeed="max">
        <route edges="gneE3"/>
    </vehicle>
    <vehicle id="1#3.3" depart="80.00" departPos="free" departSpeed="max">
        <route edges="gneE2"/>
    </vehicle>
    <vehicle id="0#2.4" depart="81.00" departPos="free" departSpeed="max">
        <route edges="gneE3"/>
    </vehicle>
    <vehicle id="1#2.4" depart="81.00" departPos="free" departSpeed="max">
        <route edges="gneE2"/>
    </vehicle>
    <vehicle id="1#2.5" depart="82.00" departPos="free" departSpeed="max">
        <route edges="gneE2"/>
    </vehicle>
    <vehicle id="1#2.6" depart="85.00" departPos="free" departSpeed="max">
        <route edges="gneE2"/>
    </vehicle>
    <vehicle id="1#0.6" depart="87.00" departPos="free" departSpeed="max">
        <route edges="gneE2"/>
    </vehicle>
    <vehicle id="1#2.7" depart="87.00" departPos="free" departSpeed="max">
        <route edges="gneE2"/>
    </vehicle>
    <vehicle id="0#0.10" depart="92.00" departPos="free" departSpeed="max">
        <route edges="gneE3"/>
    </vehicle>
    <vehicle id="1#2.8" depart="93.00" departPos="free" departSpeed="max">
        <route edges="gneE2"/>
    </vehicle>
    <vehicle id="0#2.5" depart="94.00" departPos="free" departSpeed="max">
        <route edges="gneE3"/>
    </vehicle>
    <vehicle id="1#3.4" depart="94.00" departPos="free" departSpeed="max">
        <route edges="gneE2"/>
    </vehicle>
    <vehicle id="0#2.6" depart="95.00" departPos="free" departSpeed="max">
        <route edges="gneE3"/>
    </vehicle>
    <vehicle id="1#4.7" depart="95.00" departPos="free" departSpeed="max">
        <route edges="gneE2"/>
    </vehicle>
    <vehicle id="1#0.7" depart="100.00" departPos="free" departSpeed="max">
        <route edges="gneE2"/>
    </vehicle>
    <vehicle id="0#3.7" depart="102.00" departPos="free" departSpeed="max">
        <route edges="gneE3"/>
    </vehicle>
    <vehicle id="1#1.8" depart="102.00" departPos="free" departSpeed="max">
        <route edges="gneE2"/>
    </vehicle>
    <vehicle id="0#1.11" depart="103.00" departPos="free" departSpeed="max">
        <route edges="gneE3"/>
    </vehicle>
    <vehicle id="0#4.7" depart="104.00" departPos="free" departSpeed="max">
        <route edges="gneE3"/>
    </vehicle>
    <vehicle id="0#1.12" depart="108.00" departPos="free" departSpeed="max">
        <route edges="gneE3"/>
    </vehicle>
    <vehicle id="0#2.7" depart="110.00" departPos="free" departSpeed="max">
        <route edges="gneE3"/>
    </vehicle>
    <vehicle id="0#1.13" depart="111.00" departPos="free" departSpeed="max">
        <route edges="gneE3"/>
    </vehicle>
    <vehicle id="1#3.5" depart="111.00" departPos="free" departSpeed="max">
        <route edges="gneE2"/>
    </vehicle>
    <vehicle id="1#3.6" depart="112.00" departPos="free" departSpeed="max">
        <route edges="gneE2"/>
    </vehicle>
    <vehicle id="1#3.7" depart="114.00" departPos="free" departSpeed="max">
        <route edges="gneE2"/>
    </vehicle>
    <vehicle id="0#1.14" depart="115.00" departPos="free" departSpeed="max">
        <route edges="gneE3"/>
    </vehicle>
    <vehicle id="0#1.15" depart="116.00" departPos="free" departSpeed="max">
        <route edges="gneE3"/>
    </vehicle>
    <vehicle id="0#4.8" depart="117.00" departPos="free" departSpeed="max">
        <route edges="gneE3"/>
    </vehicle>
    <vehicle id="0#1.16" depart="118.00" departPos="free" departSpeed="max">
        <route edges="gneE3"/>
    </vehicle>
    <vehicle id="0#3.8" depart="119.00" departPos="free" departSpeed="max">
        <route edges="gneE3"/>
    </vehicle>
    <vehicle id="1#2.9" depart="119.00" departPos="free" departSpeed="max">
        <route edges="gneE2"/>
    </vehicle>
    <vehicle id="0#0.11" depart="121.00" departPos="free" departSpeed="max">
        <route edges="gneE3"/>
    </vehicle>
    <vehicle id="0#4.9" depart="121.00" departPos="free" departSpeed="max">
        <route edges="gneE3"/>
    </vehicle>
    <vehicle id="1#1.9" depart="122.00" departPos="free" departSpeed="max">
        <route edges="gneE2"/>
    </vehicle>
    <vehicle id="1#2.10" depart="122.00" departPos="free" departSpeed="max">
        <route edges="gneE2"/>
    </vehicle>
    <vehicle id="0#4.10" depart="123.00" departPos="free" departSpeed="max">
        <route edges="gneE3"/>
    </vehicle>
    <vehicle id="1#1.10" depart="123.00" departPos="free" departSpeed="max">
        <route edges="gneE2"/>
    </vehicle>
    <vehicle id="1#4.8" depart="123.00" departPos="free" departSpeed="max">
        <route edges="gneE2"/>
    </vehicle>
    <vehicle id="1#1.11" depart="124.00" departPos="free" departSpeed="max">
        <route edges="gneE2"/>
    </vehicle>
    <vehicle id="1#4.9" depart="125.00" departPos="free" departSpeed="max">
        <route edges="gneE2"/>
    </vehicle>
    <vehicle id="0#3.9" depart="126.00" departPos="free" departSpeed="max">
        <route edges="gneE3"/>
    </vehicle>
    <vehicle id="1#2.11" depart="126.00" departPos="free" departSpeed="max">
        <route edges="gneE2"/>
    </vehicle>
    <vehicle id="1#2.12" depart="128.00" departPos="free" departSpeed="max">
        <route edges="gneE2"/>
    </vehicle>
    <vehicle id="1#3.8" depart="128.00" departPos="free" departSpeed="max">
        <route edges="gneE2"/>
    </vehicle>
    <vehicle id="0#4.11" depart="130.00" departPos="free" departSpeed="max">
        <route edges="gneE3"/>
    </vehicle>
    <vehicle id="0#3.10" depart="131.00" departPos="free" departSpeed="max">
        <route edges="gneE3"/>
    </vehicle>
    <vehicle id="1#3.9" depart="134.00" departPos="free" departSpeed="max">
        <route edges="gneE2"/>
    </vehicle>
    <vehicle id="1#0.8" depart="135.00" departPos="free" departSpeed="max">
        <route edges="gneE2"/>
    </vehicle>
    <vehicle id="0#3.11" depart="137.00" departPos="free" departSpeed="max">
        <route edges="gneE3"/>
    </vehicle>
    <vehicle id="1#2.13" depart="138.00" departPos="free" departSpeed="max">
        <route edges="gneE2"/>
    </vehicle>
    <vehicle id="0#1.17" depart="142.00" departPos="free" departSpeed="max">
        <route edges="gneE3"/>
    </vehicle>
    <vehicle id="1#1.12" depart="142.00" departPos="free" departSpeed="max">
        <route edges="gneE2"/>
    </vehicle>
    <vehicle id="1#2.14" depart="142.00" departPos="free" departSpeed="max">
        <route edges="gneE2"/>
    </vehicle>
    <vehicle id="0#0.12" depart="143.00" departPos="free" departSpeed="max">
        <route edges="gneE3"/>
    </vehicle>
    <vehicle id="1#0.9" depart="143.00" departPos="free" departSpeed="max">
        <route edges="gneE2"/>
    </vehicle>
    <vehicle id="1#4.10" depart="143.00" departPos="free" departSpeed="max">
        <route edges="gneE2"/>
    </vehicle>
    <vehicle id="0#3.12" depart="145.00" departPos="free" departSpeed="max">
        <route edges="gneE3"/>
    </vehicle>
    <vehicle id="1#3.10" depart="146.00" departPos="free" departSpeed="max">
        <route edges="gneE2"/>
    </vehicle>
    <vehicle id="1#3.11" depart="147.00" departPos="free" departSpeed="max">
        <route edges="gneE2"/>
    </vehicle>
    <vehicle id="1#4.11" depart="148.00" departPos="free" departSpeed="max">
        <route edges="gneE2"/>
    </vehicle>
    <vehicle id="1#3.12" depart="149.00" departPos="free" departSpeed="max">
        <route edges="gneE2"/>
    </vehicle>
    <vehicle id="0#4.12" depart="151.00" departPos="free" departSpeed="max">
        <route edges="gneE3"/>
    </vehicle>
    <vehicle id="1#3.13" depart="151.00" departPos="free" departSpeed="max">
        <route edges="gneE2"/>
    </vehicle>
    <vehicle id="1#4.12" depart="151.00" departPos="free" departSpeed="max">
        <route edges="gneE2"/>
    </vehicle>
    <vehicle id="0#0.13" depart="153.00" departPos="free" departSpeed="max">
        <route edges="gneE3"/>
    </vehicle>
    <vehicle id="1#2.15" depart="153.00" departPos="free" departSpeed="max">
        <route edges="gneE2"/>
    </vehicle>
    <vehicle id="0#0.14" depart="156.00" departPos="free" departSpeed="max">
        <route edges="gneE3"/>
    </vehicle>
    <vehicle id="1#3.14" depart="156.00" departPos="free" departSpeed="max">
        <route edges="gneE2"/>
    </vehicle>
    <vehicle id="1#2.16" depart="157.00" departPos="free" departSpeed="max">
        <route edges="gneE2"/>
    </vehicle>
    <vehicle id="1#3.15" depart="159.00" departPos="free" departSpeed="max">
        <route edges="gneE2"/>
    </vehicle>
    <vehicle id="0#1.18" depart="161.00" departPos="free" departSpeed="max">
        <route edges="gneE3"/>
    </vehicle>
    <vehicle id="0#2.8" depart="161.00" departPos="free" departSpeed="max">
        <route edges="gneE3"/>
    </vehicle>
    <vehicle id="1#1.13" depart="161.00" departPos="free" departSpeed="max">
        <route edges="gneE2"/>
    </vehicle>
    <vehicle id="0#3.13" depart="162.00" departPos="free" departSpeed="max">
        <route edges="gneE3"/>
    </vehicle>
    <vehicle id="1#3.16" depart="162.00" departPos="free" departSpeed="max">
        <route edges="gneE2"/>
    </vehicle>
    <vehicle id="0#4.13" depart="163.00" departPos="free" departSpeed="max">
        <route edges="gneE3"/>
    </vehicle>
    <vehicle id="1#1.14" depart="167.00" departPos="free" departSpeed="max">
        <route edges="gneE2"/>
    </vehicle>
    <vehicle id="0#2.9" depart="168.00" departPos="free" departSpeed="max">
        <route edges="gneE3"/>
    </vehicle>
    <vehicle id="0#1.19" depart="169.00" departPos="free" departSpeed="max">
        <route edges="gneE3"/>
    </vehicle>
    <vehicle id="0#4.14" depart="169.00" departPos="free" departSpeed="max">
        <route edges="gneE3"/>
    </vehicle>
    <vehicle id="1#4.13" depart="169.00" departPos="free" departSpeed="max">
        <route edges="gneE2"/>
    </vehicle>
    <vehicle id="1#4.14" depart="170.00" departPos="free" departSpeed="max">
        <route edges="gneE2"/>
    </vehicle>
    <vehicle id="0#1.20" depart="173.00" departPos="free" departSpeed="max">
        <route edges="gneE3"/>
    </vehicle>
    <vehicle id="1#1.15" depart="173.00" departPos="free" departSpeed="max">
        <route edges="gneE2"/>
    </vehicle>
    <vehicle id="0#4.15" depart="174.00" departPos="free" departSpeed="max">
        <route edges="gneE3"/>
    </vehicle>
    <vehicle id="0#1.21" depart="175.00" departPos="free" departSpeed="max">
        <route edges="gneE3"/>
    </vehicle>
    <vehicle id="0#4.16" depart="177.00" departPos="free" departSpeed="max">
        <route edges="gneE3"/>
    </vehicle>
    <vehicle id="0#4.17" depart="178.00" departPos="free" departSpeed="max">
        <route edges="gneE3"/>
    </vehicle>
    <vehicle id="1#2.17" depart="178.00" departPos="free" departSpeed="max">
        <route edges="gneE2"/>
    </vehicle>
    <vehicle id="1#3.17" depart="179.00" departPos="free" departSpeed="max">
        <route edges="gneE2"/>
    </vehicle>
    <vehicle id="0#4.18" depart="181.00" departPos="free" departSpeed="max">
        <route edges="gneE3"/>
    </vehicle>
    <vehicle id="1#1.16" depart="183.00" departPos="free" departSpeed="max">
        <route edges="gneE2"/>
    </vehicle>
    <vehicle id="1#3.18" depart="183.00" departPos="free" departSpeed="max">
        <route edges="gneE2"/>
    </vehicle>
    <vehicle id="1#4.15" depart="184.00" departPos="free" departSpeed="max">
        <route edges="gneE2"/>
    </vehicle>
    <vehicle id="1#3.19" depart="185.00" departPos="free" departSpeed="max">
        <route edges="gneE2"/>
    </vehicle>
    <vehicle id="1#0.10" depart="187.00" departPos="free" departSpeed="max">
        <route edges="gneE2"/>
    </vehicle>
    <vehicle id="1#1.17" depart="187.00" departPos="free" departSpeed="max">
        <route edges="gneE2"/>
    </vehicle>
    <vehicle id="0#3.14" depart="188.00" departPos="free" departSpeed="max">
        <route edges="gneE3"/>
    </vehicle>
    <vehicle id="1#1.18" depart="189.00" departPos="free" departSpeed="max">
        <route edges="gneE2"/>
    </vehicle>
    <vehicle id="0#2.10" depart="193.00" departPos="free" departSpeed="max">
        <route edges="gneE3"/>
    </vehicle>
    <vehicle id="1#0.11" depart="194.00" departPos="free" departSpeed="max">
        <route edges="gneE2"/>
    </vehicle>
    <vehicle id="0#2.11" depart="195.00" departPos="free" departSpeed="max">
        <route edges="gneE3"/>
    </vehicle>
    <vehicle id="1#1.19" depart="195.00" departPos="free" departSpeed="max">
        <route edges="gneE2"/>
    </vehicle>
    <vehicle id="0#2.12" depart="196.00" departPos="free" departSpeed="max">
        <route edges="gneE3"/>
    </vehicle>
    <vehicle id="1#1.20" depart="196.00" departPos="free" departSpeed="max">
        <route edges="gneE2"/>
    </vehicle>
    <vehicle id="1#4.16" depart="196.00" departPos="free" departSpeed="max">
        <route edges="gneE2"/>
    </vehicle>
    <vehicle id="0#3.15" depart="198.00" departPos="free" departSpeed="max">
        <route edges="gneE3"/>
    </vehicle>
    <vehicle id="1#1.21" depart="199.00" departPos="free" departSpeed="max">
        <route edges="gneE2"/>
    </vehicle>
    <vehicle id="1#4.17" depart="200.00" departPos="free" departSpeed="max">
        <route edges="gneE2"/>
    </vehicle>
    <vehicle id="0#1.22" depart="201.00" departPos="free" departSpeed="max">
        <route edges="gneE3"/>
    </vehicle>
    <vehicle id="0#1.23" depart="202.00" departPos="free" departSpeed="max">
        <route edges="gneE3"/>
    </vehicle>
    <vehicle id="0#0.15" depart="203.00" departPos="free" departSpeed="max">
        <route edges="gneE3"/>
    </vehicle>
    <vehicle id="0#0.16" depart="208.00" departPos="free" departSpeed="max">
        <route edges="gneE3"/>
    </vehicle>
    <vehicle id="0#3.16" depart="209.00" departPos="free" departSpeed="max">
        <route edges="gneE3"/>
    </vehicle>
    <vehicle id="1#2.18" depart="209.00" departPos="free" departSpeed="max">
        <route edges="gneE2"/>
    </vehicle>
    <vehicle id="0#0.17" depart="210.00" departPos="free" departSpeed="max">
        <route edges="gneE3"/>
    </vehicle>
    <vehicle id="0#2.13" depart="210.00" departPos="free" departSpeed="max">
        <route edges="gneE3"/>
    </vehicle>
    <vehicle id="1#3.20" depart="210.00" departPos="free" departSpeed="max">
        <route edges="gneE2"/>
    </vehicle>
    <vehicle id="0#4.19" depart="214.00" departPos="free" departSpeed="max">
        <route edges="gneE3"/>
    </vehicle>
    <vehicle id="0#1.24" depart="216.00" departPos="free" departSpeed="max">
        <route edges="gneE3"/>
    </vehicle>
    <vehicle id="1#4.18" depart="216.00" departPos="free" departSpeed="max">
        <route edges="gneE2"/>
    </vehicle>
    <vehicle id="1#4.19" depart="217.00" departPos="free" departSpeed="max">
        <route edges="gneE2"/>
    </vehicle>
    <vehicle id="0#0.18" depart="220.00" departPos="free" departSpeed="max">
        <route edges="gneE3"/>
    </vehicle>
    <vehicle id="0#2.14" depart="220.00" departPos="free" departSpeed="max">
        <route edges="gneE3"/>
    </vehicle>
    <vehicle id="0#0.19" depart="221.00" departPos="free" departSpeed="max">
        <route edges="gneE3"/>
    </vehicle>
    <vehicle id="1#3.21" depart="221.00" departPos="free" departSpeed="max">
        <route edges="gneE2"/>
    </vehicle>
    <vehicle id="1#0.12" depart="222.00" departPos="free" departSpeed="max">
        <route edges="gneE2"/>
    </vehicle>
    <vehicle id="0#1.25" depart="226.00" departPos="free" departSpeed="max">
        <route edges="gneE3"/>
    </vehicle>
    <vehicle id="0#2.15" depart="227.00" departPos="free" departSpeed="max">
        <route edges="gneE3"/>
    </vehicle>
    <vehicle id="0#1.26" depart="228.00" departPos="free" departSpeed="max">
        <route edges="gneE3"/>
    </vehicle>
    <vehicle id="0#3.17" depart="230.00" departPos="free" departSpeed="max">
        <route edges="gneE3"/>
    </vehicle>
    <vehicle id="1#2.19" depart="230.00" departPos="free" departSpeed="max">
        <route edges="gneE2"/>
    </vehicle>
    <vehicle id="0#3.18" depart="231.00" departPos="free" departSpeed="max">
        <route edges="gneE3"/>
    </vehicle>
    <vehicle id="0#2.16" depart="233.00" departPos="free" departSpeed="max">
        <route edges="gneE3"/>
    </vehicle>
    <vehicle id="0#4.20" depart="233.00" departPos="free" departSpeed="max">
        <route edges="gneE3"/>
    </vehicle>
    <vehicle id="0#1.27" depart="238.00" departPos="free" departSpeed="max">
        <route edges="gneE3"/>
    </vehicle>
    <vehicle id="1#1.22" depart="238.00" departPos="free" departSpeed="max">
        <route edges="gneE2"/>
    </vehicle>
    <vehicle id="1#2.20" depart="239.00" departPos="free" departSpeed="max">
        <route edges="gneE2"/>
    </vehicle>
    <vehicle id="0#2.17" depart="240.00" departPos="free" departSpeed="max">
        <route edges="gneE3"/>
    </vehicle>
    <vehicle id="0#4.21" depart="241.00" departPos="free" departSpeed="max">
        <route edges="gneE3"/>
    </vehicle>
    <vehicle id="1#3.22" depart="242.00" departPos="free" departSpeed="max">
        <route edges="gneE2"/>
    </vehicle>
    <vehicle id="0#2.18" depart="243.00" departPos="free" departSpeed="max">
        <route edges="gneE3"/>
    </vehicle>
    <vehicle id="1#1.23" depart="243.00" departPos="free" departSpeed="max">
        <route edges="gneE2"/>
    </vehicle>
    <vehicle id="0#0.20" depart="244.00" departPos="free" departSpeed="max">
        <route edges="gneE3"/>
    </vehicle>
    <vehicle id="0#3.19" depart="245.00" departPos="free" departSpeed="max">
        <route edges="gneE3"/>
    </vehicle>
    <vehicle id="0#1.28" depart="246.00" departPos="free" departSpeed="max">
        <route edges="gneE3"/>
    </vehicle>
    <vehicle id="1#0.13" depart="250.00" departPos="free" departSpeed="max">
        <route edges="gneE2"/>
    </vehicle>
    <vehicle id="0#3.20" depart="251.00" departPos="free" departSpeed="max">
        <route edges="gneE3"/>
    </vehicle>
    <vehicle id="1#1.24" depart="251.00" departPos="free" departSpeed="max">
        <route edges="gneE2"/>
    </vehicle>
    <vehicle id="1#2.21" depart="251.00" departPos="free" departSpeed="max">
        <route edges="gneE2"/>
    </vehicle>
    <vehicle id="1#4.20" depart="252.00" departPos="free" departSpeed="max">
        <route edges="gneE2"/>
    </vehicle>
    <vehicle id="1#1.25" depart="253.00" departPos="free" departSpeed="max">
        <route edges="gneE2"/>
    </vehicle>
    <vehicle id="1#2.22" depart="253.00" departPos="free" departSpeed="max">
        <route edges="gneE2"/>
    </vehicle>
    <vehicle id="0#0.21" depart="255.00" departPos="free" departSpeed="max">
        <route edges="gneE3"/>
    </vehicle>
    <vehicle id="0#3.21" depart="255.00" departPos="free" departSpeed="max">
        <route edges="gneE3"/>
    </vehicle>
    <vehicle id="1#2.23" depart="255.00" departPos="free" departSpeed="max">
        <route edges="gneE2"/>
    </vehicle>
    <vehicle id="0#4.22" depart="257.00" departPos="free" departSpeed="max">
        <route edges="gneE3"/>
    </vehicle>
    <vehicle id="1#0.14" depart="257.00" departPos="free" departSpeed="max">
        <route edges="gneE2"/>
    </vehicle>
    <vehicle id="1#4.21" depart="257.00" departPos="free" departSpeed="max">
        <route edges="gneE2"/>
    </vehicle>
    <vehicle id="0#1.29" depart="258.00" departPos="free" departSpeed="max">
        <route edges="gneE3"/>
    </vehicle>
    <vehicle id="1#1.26" depart="258.00" departPos="free" departSpeed="max">
        <route edges="gneE2"/>
    </vehicle>
    <vehicle id="0#1.30" depart="259.00" departPos="free" departSpeed="max">
        <route edges="gneE3"/>
    </vehicle>
    <vehicle id="1#3.23" depart="260.00" departPos="free" departSpeed="max">
        <route edges="gneE2"/>
    </vehicle>
    <vehicle id="1#4.22" depart="260.00" departPos="free" departSpeed="max">
        <route edges="gneE2"/>
    </vehicle>
    <vehicle id="0#1.31" depart="261.00" departPos="free" departSpeed="max">
        <route edges="gneE3"/>
    </vehicle>
    <vehicle id="0#2.19" depart="261.00" departPos="free" departSpeed="max">
        <route edges="gneE3"/>
    </vehicle>
    <vehicle id="1#2.24" depart="265.00" departPos="free" departSpeed="max">
        <route edges="gneE2"/>
    </vehicle>
    <vehicle id="0#0.22" depart="266.00" departPos="free" departSpeed="max">
        <route edges="gneE3"/>
    </vehicle>
    <vehicle id="0#3.22" depart="266.00" departPos="free" departSpeed="max">
        <route edges="gneE3"/>
    </vehicle>
    <vehicle id="1#0.15" depart="267.00" departPos="free" departSpeed="max">
        <route edges="gneE2"/>
    </vehicle>
    <vehicle id="0#0.23" depart="270.00" departPos="free" departSpeed="max">
        <route edges="gneE3"/>
    </vehicle>
    <vehicle id="0#4.23" depart="270.00" departPos="free" departSpeed="max">
        <route edges="gneE3"/>