<?xml version="1.0" encoding="UTF-8"?>

<!-- generated on Thu Jan 28 18:37:44 2021 by Eclipse SUMO duarouter Version 1.8.0
<configuration xmlns:xsi="http://www.w3.org/2001/XMLSchema-instance" xsi:noNamespaceSchemaLocation="http://sumo.dlr.de/xsd/duarouterConfiguration.xsd">

    <input>
        <net-file value="131_13Highway.net.xml"/>
        <route-files value="131_13Highway.flow.xml"/>
    </input>

    <output>
        <output-file value="131_13Highway.rou.xml"/>
        <alternatives-output value="131_13Highway.rou.alt.xml"/>
    </output>

    <time>
        <begin value="0"/>
        <end value="1000"/>
    </time>

    <report>
        <no-warnings value="true"/>
        <ignore-errors value="true"/>
        <no-step-log value="true"/>
    </report>

</configuration>
-->

<routes xmlns:xsi="http://www.w3.org/2001/XMLSchema-instance" xsi:noNamespaceSchemaLocation="http://sumo.dlr.de/xsd/routes_file.xsd">
    <vehicle id="0#3.0" depart="0.00" departPos="free" departSpeed="max">
        <route edges="gneE3"/>
    </vehicle>
    <vehicle id="1#0.0" depart="0.00" departPos="free" departSpeed="max">
        <route edges="gneE2"/>
    </vehicle>
    <vehicle id="1#3.0" depart="0.00" departPos="free" departSpeed="max">
        <route edges="gneE2"/>
    </vehicle>
    <vehicle id="0#1.0" depart="1.00" departPos="free" departSpeed="max">
        <route edges="gneE3"/>
    </vehicle>
    <vehicle id="0#2.0" depart="1.00" departPos="free" departSpeed="max">
        <route edges="gneE3"/>
    </vehicle>
    <vehicle id="0#4.0" depart="1.00" departPos="free" departSpeed="max">
        <route edges="gneE3"/>
    </vehicle>
    <vehicle id="1#2.0" depart="1.00" departPos="free" departSpeed="max">
        <route edges="gneE2"/>
    </vehicle>
    <vehicle id="0#0.0" depart="2.00" departPos="free" departSpeed="max">
        <route edges="gneE3"/>
    </vehicle>
    <vehicle id="0#2.1" depart="2.00" departPos="free" departSpeed="max">
        <route edges="gneE3"/>
    </vehicle>
    <vehicle id="0#4.1" depart="2.00" departPos="free" departSpeed="max">
        <route edges="gneE3"/>
    </vehicle>
    <vehicle id="1#1.0" depart="2.00" departPos="free" departSpeed="max">
        <route edges="gneE2"/>
    </vehicle>
    <vehicle id="1#3.1" depart="2.00" departPos="free" departSpeed="max">
        <route edges="gneE2"/>
    </vehicle>
    <vehicle id="1#4.0" depart="2.00" departPos="free" departSpeed="max">
        <route edges="gneE2"/>
    </vehicle>
    <vehicle id="0#1.1" depart="3.00" departPos="free" departSpeed="max">
        <route edges="gneE3"/>
    </vehicle>
    <vehicle id="0#2.2" depart="3.00" departPos="free" departSpeed="max">
        <route edges="gneE3"/>
    </vehicle>
    <vehicle id="0#3.1" depart="3.00" departPos="free" departSpeed="max">
        <route edges="gneE3"/>
    </vehicle>
    <vehicle id="1#0.1" depart="3.00" departPos="free" departSpeed="max">
        <route edges="gneE2"/>
    </vehicle>
    <vehicle id="1#2.1" depart="3.00" departPos="free" departSpeed="max">
        <route edges="gneE2"/>
    </vehicle>
    <vehicle id="1#1.1" depart="4.00" departPos="free" departSpeed="max">
        <route edges="gneE2"/>
    </vehicle>
    <vehicle id="1#2.2" depart="4.00" departPos="free" departSpeed="max">
        <route edges="gneE2"/>
    </vehicle>
    <vehicle id="0#0.1" depart="5.00" departPos="free" departSpeed="max">
        <route edges="gneE3"/>
    </vehicle>
    <vehicle id="0#2.3" depart="5.00" departPos="free" departSpeed="max">
        <route edges="gneE3"/>
    </vehicle>
    <vehicle id="1#1.2" depart="5.00" departPos="free" departSpeed="max">
        <route edges="gneE2"/>
    </vehicle>
    <vehicle id="1#2.3" depart="5.00" departPos="free" departSpeed="max">
        <route edges="gneE2"/>
    </vehicle>
    <vehicle id="0#3.2" depart="6.00" departPos="free" departSpeed="max">
        <route edges="gneE3"/>
    </vehicle>
    <vehicle id="1#0.2" depart="6.00" departPos="free" departSpeed="max">
        <route edges="gneE2"/>
    </vehicle>
    <vehicle id="1#1.3" depart="6.00" departPos="free" departSpeed="max">
        <route edges="gneE2"/>
    </vehicle>
    <vehicle id="1#2.4" depart="6.00" departPos="free" departSpeed="max">
        <route edges="gneE2"/>
    </vehicle>
    <vehicle id="1#3.2" depart="6.00" departPos="free" departSpeed="max">
        <route edges="gneE2"/>
    </vehicle>
    <vehicle id="0#0.2" depart="7.00" departPos="free" departSpeed="max">
        <route edges="gneE3"/>
    </vehicle>
    <vehicle id="0#1.2" depart="7.00" departPos="free" departSpeed="max">
        <route edges="gneE3"/>
    </vehicle>
    <vehicle id="0#2.4" depart="7.00" departPos="free" departSpeed="max">
        <route edges="gneE3"/>
    </vehicle>
    <vehicle id="0#4.2" depart="7.00" departPos="free" departSpeed="max">
        <route edges="gneE3"/>
    </vehicle>
    <vehicle id="1#1.4" depart="7.00" departPos="free" departSpeed="max">
        <route edges="gneE2"/>
    </vehicle>
    <vehicle id="0#2.5" depart="8.00" departPos="free" departSpeed="max">
        <route edges="gneE3"/>
    </vehicle>
    <vehicle id="1#0.3" depart="8.00" departPos="free" departSpeed="max">
        <route edges="gneE2"/>
    </vehicle>
    <vehicle id="1#2.5" depart="8.00" departPos="free" departSpeed="max">
        <route edges="gneE2"/>
    </vehicle>
    <vehicle id="0#1.3" depart="9.00" departPos="free" departSpeed="max">
        <route edges="gneE3"/>
    </vehicle>
    <vehicle id="0#2.6" depart="9.00" departPos="free" departSpeed="max">
        <route edges="gneE3"/>
    </vehicle>
    <vehicle id="1#3.3" depart="9.00" departPos="free" departSpeed="max">
        <route edges="gneE2"/>
    </vehicle>
    <vehicle id="0#0.3" depart="10.00" departPos="free" departSpeed="max">
        <route edges="gneE3"/>
    </vehicle>
    <vehicle id="1#0.4" depart="10.00" departPos="free" departSpeed="max">
        <route edges="gneE2"/>
    </vehicle>
    <vehicle id="1#4.1" depart="10.00" departPos="free" departSpeed="max">
        <route edges="gneE2"/>
    </vehicle>
    <vehicle id="0#1.4" depart="11.00" departPos="free" departSpeed="max">
        <route edges="gneE3"/>
    </vehicle>
    <vehicle id="0#3.3" depart="11.00" departPos="free" departSpeed="max">
        <route edges="gneE3"/>
    </vehicle>
    <vehicle id="1#1.5" depart="11.00" departPos="free" departSpeed="max">
        <route edges="gneE2"/>
    </vehicle>
    <vehicle id="1#2.6" depart="11.00" departPos="free" departSpeed="max">
        <route edges="gneE2"/>
    </vehicle>
    <vehicle id="0#4.3" depart="12.00" departPos="free" departSpeed="max">
        <route edges="gneE3"/>
    </vehicle>
    <vehicle id="1#0.5" depart="12.00" departPos="free" departSpeed="max">
        <route edges="gneE2"/>
    </vehicle>
    <vehicle id="0#3.4" depart="13.00" departPos="free" departSpeed="max">
        <route edges="gneE3"/>
    </vehicle>
    <vehicle id="1#0.6" depart="13.00" departPos="free" departSpeed="max">
        <route edges="gneE2"/>
    </vehicle>
    <vehicle id="1#1.6" depart="13.00" departPos="free" departSpeed="max">
        <route edges="gneE2"/>
    </vehicle>
    <vehicle id="0#3.5" depart="14.00" departPos="free" departSpeed="max">
        <route edges="gneE3"/>
    </vehicle>
    <vehicle id="0#4.4" depart="14.00" departPos="free" departSpeed="max">
        <route edges="gneE3"/>
    </vehicle>
    <vehicle id="1#0.7" depart="14.00" departPos="free" departSpeed="max">
        <route edges="gneE2"/>
    </vehicle>
    <vehicle id="1#2.7" depart="14.00" departPos="free" departSpeed="max">
        <route edges="gneE2"/>
    </vehicle>
    <vehicle id="1#4.2" depart="14.00" departPos="free" departSpeed="max">
        <route edges="gneE2"/>
    </vehicle>
    <vehicle id="0#0.4" depart="15.00" departPos="free" departSpeed="max">
        <route edges="gneE3"/>
    </vehicle>
    <vehicle id="0#2.7" depart="15.00" departPos="free" departSpeed="max">
        <route edges="gneE3"/>
    </vehicle>
    <vehicle id="0#4.5" depart="15.00" departPos="free" departSpeed="max">
        <route edges="gneE3"/>
    </vehicle>
    <vehicle id="1#2.8" depart="15.00" departPos="free" departSpeed="max">
        <route edges="gneE2"/>
    </vehicle>
    <vehicle id="1#4.3" depart="15.00" departPos="free" departSpeed="max">
        <route edges="gneE2"/>
    </vehicle>
    <vehicle id="0#0.5" depart="16.00" departPos="free" departSpeed="max">
        <route edges="gneE3"/>
    </vehicle>
    <vehicle id="0#1.5" depart="16.00" departPos="free" departSpeed="max">
        <route edges="gneE3"/>
    </vehicle>
    <vehicle id="0#4.6" depart="17.00" departPos="free" departSpeed="max">
        <route edges="gneE3"/>
    </vehicle>
    <vehicle id="1#3.4" depart="17.00" departPos="free" departSpeed="max">
        <route edges="gneE2"/>
    </vehicle>
    <vehicle id="0#0.6" depart="18.00" departPos="free" departSpeed="max">
        <route edges="gneE3"/>
    </vehicle>
    <vehicle id="1#1.7" depart="18.00" departPos="free" departSpeed="max">
        <route edges="gneE2"/>
    </vehicle>
    <vehicle id="1#4.4" depart="18.00" departPos="free" departSpeed="max">
        <route edges="gneE2"/>
    </vehicle>
    <vehicle id="0#1.6" depart="19.00" departPos="free" departSpeed="max">
        <route edges="gneE3"/>
    </vehicle>
    <vehicle id="1#1.8" depart="19.00" departPos="free" departSpeed="max">
        <route edges="gneE2"/>
    </vehicle>
    <vehicle id="1#2.9" depart="19.00" departPos="free" departSpeed="max">
        <route edges="gneE2"/>
    </vehicle>
    <vehicle id="1#3.5" depart="19.00" departPos="free" departSpeed="max">
        <route edges="gneE2"/>
    </vehicle>
    <vehicle id="0#0.7" depart="20.00" departPos="free" departSpeed="max">
        <route edges="gneE3"/>
    </vehicle>
    <vehicle id="0#4.7" depart="20.00" departPos="free" departSpeed="max">
        <route edges="gneE3"/>
    </vehicle>
    <vehicle id="0#1.7" depart="21.00" departPos="free" departSpeed="max">
        <route edges="gneE3"/>
    </vehicle>
    <vehicle id="0#3.6" depart="21.00" departPos="free" departSpeed="max">
        <route edges="gneE3"/>
    </vehicle>
    <vehicle id="0#4.8" depart="21.00" departPos="free" departSpeed="max">
        <route edges="gneE3"/>
    </vehicle>
    <vehicle id="1#0.8" depart="21.00" departPos="free" departSpeed="max">
        <route edges="gneE2"/>
    </vehicle>
    <vehicle id="1#2.10" depart="21.00" departPos="free" departSpeed="max">
        <route edges="gneE2"/>
    </vehicle>
    <vehicle id="1#4.5" depart="21.00" departPos="free" departSpeed="max">
        <route edges="gneE2"/>
    </vehicle>
    <vehicle id="0#0.8" depart="22.00" departPos="free" departSpeed="max">
        <route edges="gneE3"/>
    </vehicle>
    <vehicle id="0#4.9" depart="22.00" departPos="free" departSpeed="max">
        <route edges="gneE3"/>
    </vehicle>
    <vehicle id="1#1.9" depart="22.00" departPos="free" departSpeed="max">
        <route edges="gneE2"/>
    </vehicle>
    <vehicle id="0#1.8" depart="23.00" departPos="free" departSpeed="max">
        <route edges="gneE3"/>
    </vehicle>
    <vehicle id="0#2.8" depart="23.00" departPos="free" departSpeed="max">
        <route edges="gneE3"/>
    </vehicle>
    <vehicle id="0#2.9" depart="24.00" departPos="free" departSpeed="max">
        <route edges="gneE3"/>
    </vehicle>
    <vehicle id="0#2.10" depart="25.00" departPos="free" departSpeed="max">
        <route edges="gneE3"/>
    </vehicle>
    <vehicle id="0#3.7" depart="25.00" departPos="free" departSpeed="max">
        <route edges="gneE3"/>
    </vehicle>
    <vehicle id="1#0.9" depart="25.00" departPos="free" departSpeed="max">
        <route edges="gneE2"/>
    </vehicle>
    <vehicle id="1#3.6" depart="25.00" departPos="free" departSpeed="max">
        <route edges="gneE2"/>
    </vehicle>
    <vehicle id="1#4.6" depart="26.00" departPos="free" departSpeed="max">
        <route edges="gneE2"/>
    </vehicle>
    <vehicle id="0#1.9" depart="27.00" departPos="free" departSpeed="max">
        <route edges="gneE3"/>
    </vehicle>
    <vehicle id="1#0.10" depart="27.00" departPos="free" departSpeed="max">
        <route edges="gneE2"/>
    </vehicle>
    <vehicle id="1#1.10" depart="27.00" departPos="free" departSpeed="max">
        <route edges="gneE2"/>
    </vehicle>
    <vehicle id="0#3.8" depart="28.00" departPos="free" departSpeed="max">
        <route edges="gneE3"/>
    </vehicle>
    <vehicle id="1#0.11" depart="28.00" departPos="free" departSpeed="max">
        <route edges="gneE2"/>
    </vehicle>
    <vehicle id="1#2.11" depart="28.00" departPos="free" departSpeed="max">
        <route edges="gneE2"/>
    </vehicle>
    <vehicle id="0#0.9" depart="29.00" departPos="free" departSpeed="max">
        <route edges="gneE3"/>
    </vehicle>
    <vehicle id="0#1.10" depart="29.00" departPos="free" departSpeed="max">
        <route edges="gneE3"/>
    </vehicle>
    <vehicle id="0#2.11" depart="29.00" departPos="free" departSpeed="max">
        <route edges="gneE3"/>
    </vehicle>
    <vehicle id="0#4.10" depart="29.00" departPos="free" departSpeed="max">
        <route edges="gneE3"/>
    </vehicle>
    <vehicle id="1#0.12" depart="29.00" departPos="free" departSpeed="max">
        <route edges="gneE2"/>
    </vehicle>
    <vehicle id="0#0.10" depart="30.00" departPos="free" departSpeed="max">
        <route edges="gneE3"/>
    </vehicle>
    <vehicle id="0#1.11" depart="30.00" departPos="free" departSpeed="max">
        <route edges="gneE3"/>
    </vehicle>
    <vehicle id="0#2.12" depart="30.00" departPos="free" departSpeed="max">
        <route edges="gneE3"/>
    </vehicle>
    <vehicle id="0#0.11" depart="31.00" departPos="free" departSpeed="max">
        <route edges="gneE3"/>
    </vehicle>
    <vehicle id="1#2.12" depart="31.00" departPos="free" departSpeed="max">
        <route edges="gneE2"/>
    </vehicle>
    <vehicle id="0#1.12" depart="32.00" departPos="free" departSpeed="max">
        <route edges="gneE3"/>
    </vehicle>
    <vehicle id="0#0.12" depart="33.00" departPos="free" departSpeed="max">
        <route edges="gneE3"/>
    </vehicle>
    <vehicle id="0#2.13" depart="33.00" departPos="free" departSpeed="max">
        <route edges="gneE3"/>
    </vehicle>
    <vehicle id="1#0.13" depart="33.00" departPos="free" departSpeed="max">
        <route edges="gneE2"/>
    </vehicle>
    <vehicle id="1#1.11" depart="33.00" departPos="free" departSpeed="max">
        <route edges="gneE2"/>
    </vehicle>
    <vehicle id="1#4.7" depart="33.00" departPos="free" departSpeed="max">
        <route edges="gneE2"/>
    </vehicle>
    <vehicle id="0#1.13" depart="34.00" departPos="free" departSpeed="max">
        <route edges="gneE3"/>
    </vehicle>
    <vehicle id="0#3.9" depart="34.00" departPos="free" departSpeed="max">
        <route edges="gneE3"/>
    </vehicle>
    <vehicle id="1#0.14" depart="34.00" departPos="free" departSpeed="max">
        <route edges="gneE2"/>
    </vehicle>
    <vehicle id="1#2.13" depart="34.00" departPos="free" departSpeed="max">
        <route edges="gneE2"/>
    </vehicle>
    <vehicle id="1#4.8" depart="34.00" departPos="free" departSpeed="max">
        <route edges="gneE2"/>
    </vehicle>
    <vehicle id="0#0.13" depart="35.00" departPos="free" departSpeed="max">
        <route edges="gneE3"/>
    </vehicle>
    <vehicle id="0#2.14" depart="35.00" departPos="free" departSpeed="max">
        <route edges="gneE3"/>
    </vehicle>
    <vehicle id="1#0.15" depart="35.00" departPos="free" departSpeed="max">
        <route edges="gneE2"/>
    </vehicle>
    <vehicle id="1#1.12" depart="35.00" departPos="free" departSpeed="max">
        <route edges="gneE2"/>
    </vehicle>
    <vehicle id="0#4.11" depart="36.00" departPos="free" departSpeed="max">
        <route edges="gneE3"/>
    </vehicle>
    <vehicle id="0#0.14" depart="37.00" departPos="free" departSpeed="max">
        <route edges="gneE3"/>
    </vehicle>
    <vehicle id="0#1.14" depart="37.00" departPos="free" departSpeed="max">
        <route edges="gneE3"/>
    </vehicle>
    <vehicle id="0#3.10" depart="37.00" departPos="free" departSpeed="max">
        <route edges="gneE3"/>
    </vehicle>
    <vehicle id="0#4.12" depart="37.00" departPos="free" departSpeed="max">
        <route edges="gneE3"/>
    </vehicle>
    <vehicle id="1#1.13" depart="37.00" departPos="free" departSpeed="max">
        <route edges="gneE2"/>
    </vehicle>
    <vehicle id="1#3.7" depart="37.00" departPos="free" departSpeed="max">
        <route edges="gneE2"/>
    </vehicle>
    <vehicle id="1#4.9" depart="37.00" departPos="free" departSpeed="max">
        <route edges="gneE2"/>
    </vehicle>
    <vehicle id="0#0.15" depart="38.00" departPos="free" departSpeed="max">
        <route edges="gneE3"/>
    </vehicle>
    <vehicle id="1#4.10" depart="38.00" departPos="free" departSpeed="max">
        <route edges="gneE2"/>
    </vehicle>
    <vehicle id="0#0.16" depart="39.00" departPos="free" departSpeed="max">
        <route edges="gneE3"/>
    </vehicle>
    <vehicle id="1#0.16" depart="39.00" departPos="free" departSpeed="max">
        <route edges="gneE2"/>
    </vehicle>
    <vehicle id="1#2.14" depart="39.00" departPos="free" departSpeed="max">
        <route edges="gneE2"/>
    </vehicle>
    <vehicle id="0#1.15" depart="40.00" departPos="free" departSpeed="max">
        <route edges="gneE3"/>
    </vehicle>
    <vehicle id="1#0.17" depart="40.00" departPos="free" departSpeed="max">
        <route edges="gneE2"/>
    </vehicle>
    <vehicle id="1#4.11" depart="40.00" departPos="free" departSpeed="max">
        <route edges="gneE2"/>
    </vehicle>
    <vehicle id="0#1.16" depart="41.00" departPos="free" departSpeed="max">
        <route edges="gneE3"/>
    </vehicle>
    <vehicle id="0#3.11" depart="41.00" departPos="free" departSpeed="max">
        <route edges="gneE3"/>
    </vehicle>
    <vehicle id="1#1.14" depart="41.00" departPos="free" departSpeed="max">
        <route edges="gneE2"/>
    </vehicle>
    <vehicle id="1#2.15" depart="41.00" departPos="free" departSpeed="max">
        <route edges="gneE2"/>
    </vehicle>
    <vehicle id="1#4.12" depart="41.00" departPos="free" departSpeed="max">
        <route edges="gneE2"/>
    </vehicle>
    <vehicle id="0#0.17" depart="42.00" departPos="free" departSpeed="max">
        <route edges="gneE3"/>
    </vehicle>
    <vehicle id="0#2.15" depart="42.00" departPos="free" departSpeed="max">
        <route edges="gneE3"/>
    </vehicle>
    <vehicle id="1#3.8" depart="42.00" departPos="free" departSpeed="max">
        <route edges="gneE2"/>
    </vehicle>
    <vehicle id="0#0.18" depart="43.00" departPos="free" departSpeed="max">
        <route edges="gneE3"/>
    </vehicle>
    <vehicle id="0#1.17" depart="43.00" departPos="free" departSpeed="max">
        <route edges="gneE3"/>
    </vehicle>
    <vehicle id="0#0.19" depart="44.00" departPos="free" departSpeed="max">
        <route edges="gneE3"/>
    </vehicle>
    <vehicle id="0#1.18" depart="44.00" departPos="free" departSpeed="max">
        <route edges="gneE3"/>
    </vehicle>
    <vehicle id="0#3.12" depart="44.00" departPos="free" departSpeed="max">
        <route edges="gneE3"/>
    </vehicle>
    <vehicle id="1#4.13" depart="44.00" departPos="free" departSpeed="max">
        <route edges="gneE2"/>
    </vehicle>
    <vehicle id="0#1.19" depart="45.00" departPos="free" departSpeed="max">
        <route edges="gneE3"/>
    </vehicle>
    <vehicle id="0#2.16" depart="45.00" departPos="free" departSpeed="max">
        <route edges="gneE3"/>
    </vehicle>
    <vehicle id="0#3.13" depart="45.00" departPos="free" departSpeed="max">
        <route edges="gneE3"/>
    </vehicle>
    <vehicle id="1#1.15" depart="45.00" departPos="free" departSpeed="max">
        <route edges="gneE2"/>
    </vehicle>
    <vehicle id="1#4.14" depart="45.00" departPos="free" departSpeed="max">
        <route edges="gneE2"/>
    </vehicle>
    <vehicle id="0#0.20" depart="46.00" departPos="free" departSpeed="max">
        <route edges="gneE3"/>
    </vehicle>
    <vehicle id="0#2.17" depart="46.00" departPos="free" departSpeed="max">
        <route edges="gneE3"/>
    </vehicle>
    <vehicle id="0#1.20" depart="47.00" departPos="free" departSpeed="max">
        <route edges="gneE3"/>
    </vehicle>
    <vehicle id="1#3.9" depart="47.00" departPos="free" departSpeed="max">
        <route edges="gneE2"/>
    </vehicle>
    <vehicle id="1#4.15" depart="47.00" departPos="free" departSpeed="max">
        <route edges="gneE2"/>
    </vehicle>
    <vehicle id="0#0.21" depart="48.00" departPos="free" departSpeed="max">
        <route edges="gneE3"/>
    </vehicle>
    <vehicle id="0#4.13" depart="48.00" departPos="free" departSpeed="max">
        <route edges="gneE3"/>
    </vehicle>
    <vehicle id="1#2.16" depart="48.00" departPos="free" departSpeed="max">
        <route edges="gneE2"/>
    </vehicle>
    <vehicle id="0#1.21" depart="49.00" departPos="free" departSpeed="max">
        <route edges="gneE3"/>
    </vehicle>
    <vehicle id="1#4.16" depart="49.00" departPos="free" departSpeed="max">
        <route edges="gneE2"/>
    </vehicle>
    <vehicle id="0#1.22" depart="50.00" departPos="free" departSpeed="max">
        <route edges="gneE3"/>
    </vehicle>
    <vehicle id="0#4.14" depart="50.00" departPos="free" departSpeed="max">
        <route edges="gneE3"/>
    </vehicle>
    <vehicle id="1#2.17" depart="50.00" departPos="free" departSpeed="max">
        <route edges="gneE2"/>
    </vehicle>
    <vehicle id="1#3.10" depart="50.00" departPos="free" departSpeed="max">
        <route edges="gneE2"/>
    </vehicle>
    <vehicle id="0#3.14" depart="51.00" departPos="free" departSpeed="max">
        <route edges="gneE3"/>
    </vehicle>
    <vehicle id="1#2.18" depart="51.00" departPos="free" departSpeed="max">
        <route edges="gneE2"/>
    </vehicle>
    <vehicle id="0#2.18" depart="52.00" departPos="free" departSpeed="max">
        <route edges="gneE3"/>
    </vehicle>
    <vehicle id="0#3.15" depart="52.00" departPos="free" departSpeed="max">
        <route edges="gneE3"/>
    </vehicle>
    <vehicle id="0#4.15" depart="52.00" departPos="free" departSpeed="max">
        <route edges="gneE3"/>
    </vehicle>
    <vehicle id="1#3.11" depart="52.00" departPos="free" departSpeed="max">
        <route edges="gneE2"/>
    </vehicle>
    <vehicle id="0#2.19" depart="53.00" departPos="free" departSpeed="max">
        <route edges="gneE3"/>
    </vehicle>
    <vehicle id="0#3.16" depart="53.00" departPos="free" departSpeed="max">
        <route edges="gneE3"/>
    </vehicle>
    <vehicle id="1#2.19" depart="53.00" departPos="free" departSpeed="max">
        <route edges="gneE2"/>
    </vehicle>
    <vehicle id="1#4.17" depart="53.00" departPos="free" departSpeed="max">
        <route edges="gneE2"/>
    </vehicle>
    <vehicle id="1#0.18" depart="54.00" departPos="free" departSpeed="max">
        <route edges="gneE2"/>
    </vehicle>
    <vehicle id="1#2.20" depart="54.00" departPos="free" departSpeed="max">
        <route edges="gneE2"/>
    </vehicle>
    <vehicle id="0#0.22" depart="55.00" departPos="free" departSpeed="max">
        <route edges="gneE3"/>
    </vehicle>
    <vehicle id="0#3.17" depart="55.00" departPos="free" departSpeed="max">
        <route edges="gneE3"/>
    </vehicle>
    <vehicle id="0#4.16" depart="55.00" departPos="free" departSpeed="max">
        <route edges="gneE3"/>
    </vehicle>
    <vehicle id="1#1.16" depart="56.00" departPos="free" departSpeed="max">
        <route edges="gneE2"/>
    </vehicle>
    <vehicle id="1#2.21" depart="56.00" departPos="free" departSpeed="max">
        <route edges="gneE2"/>
    </vehicle>
    <vehicle id="1#3.12" depart="57.00" departPos="free" departSpeed="max">
        <route edges="gneE2"/>
    </vehicle>
    <vehicle id="1#4.18" depart="57.00" departPos="free" departSpeed="max">
        <route edges="gneE2"/>
    </vehicle>
    <vehicle id="0#0.23" depart="58.00" departPos="free" departSpeed="max">
        <route edges="gneE3"/>
    </vehicle>
    <vehicle id="0#2.20" depart="58.00" departPos="free" departSpeed="max">
        <route edges="gneE3"/>
    </vehicle>
    <vehicle id="1#1.17" depart="58.00" departPos="free" departSpeed="max">
        <route edges="gneE2"/>
    </vehicle>
    <vehicle id="0#4.17" depart="59.00" departPos="free" departSpeed="max">
        <route edges="gneE3"/>
    </vehicle>
    <vehicle id="1#0.19" depart="59.00" departPos="free" departSpeed="max">
        <route edges="gneE2"/>
    </vehicle>
    <vehicle id="0#0.24" depart="60.00" departPos="free" departSpeed="max">
        <route edges="gneE3"/>
    </vehicle>
    <vehicle id="0#3.18" depart="60.00" departPos="free" departSpeed="max">
        <route edges="gneE3"/>
    </vehicle>
    <vehicle id="1#2.22" depart="60.00" departPos="free" departSpeed="max">
        <route edges="gneE2"/>
    </vehicle>
    <vehicle id="1#1.18" depart="61.00" departPos="free" departSpeed="max">
        <route edges="gneE2"/>
    </vehicle>
    <vehicle id="0#0.25" depart="62.00" departPos="free" departSpeed="max">
        <route edges="gneE3"/>
    </vehicle>
    <vehicle id="0#1.23" depart="62.00" departPos="free" departSpeed="max">
        <route edges="gneE3"/>
    </vehicle>
    <vehicle id="0#2.21" depart="62.00" departPos="free" departSpeed="max">
        <route edges="gneE3"/>
    </vehicle>
    <vehicle id="1#1.19" depart="62.00" departPos="free" departSpeed="max">
        <route edges="gneE2"/>
    </vehicle>
    <vehicle id="0#0.26" depart="63.00" departPos="free" departSpeed="max">
        <route edges="gneE3"/>
    </vehicle>
    <vehicle id="0#1.24" depart="63.00" departPos="free" departSpeed="max">
        <route edges="gneE3"/>
    </vehicle>
    <vehicle id="0#4.18" depart="63.00" departPos="free" departSpeed="max">
        <route edges="gneE3"/>
    </vehicle>
    <vehicle id="1#3.13" depart="63.00" departPos="free" departSpeed="max">
        <route edges="gneE2"/>
    </vehicle>
    <vehicle id="0#0.27" depart="64.00" departPos="free" departSpeed="max">
        <route edges="gneE3"/>
    </vehicle>
    <vehicle id="0#1.25" depart="64.00" departPos="free" departSpeed="max">
        <route edges="gneE3"/>
    </vehicle>
    <vehicle id="0#4.19" depart="64.00" departPos="free" departSpeed="max">
        <route edges="gneE3"/>
    </vehicle>
    <vehicle id="1#1.20" depart="64.00" departPos="free" departSpeed="max">
        <route edges="gneE2"/>
    </vehicle>
    <vehicle id="0#1.26" depart="65.00" departPos="free" departSpeed="max">
        <route edges="gneE3"/>
    </vehicle>
    <vehicle id="0#2.22" depart="65.00" departPos="free" departSpeed="max">
        <route edges="gneE3"/>
    </vehicle>
    <vehicle id="1#0.20" depart="65.00" departPos="free" departSpeed="max">
        <route edges="gneE2"/>
    </vehicle>
    <vehicle id="0#2.23" depart="66.00" departPos="free" departSpeed="max">
        <route edges="gneE3"/>
    </vehicle>
    <vehicle id="1#2.23" depart="66.00" departPos="free" departSpeed="max">
        <route edges="gneE2"/>
    </vehicle>
    <vehicle id="0#0.28" depart="67.00" departPos="free" departSpeed="max">
        <route edges="gneE3"/>
    </vehicle>
    <vehicle id="0#1.27" depart="67.00" departPos="free" departSpeed="max">
        <route edges="gneE3"/>
    </vehicle>
    <vehicle id="0#3.19" depart="67.00" departPos="free" departSpeed="max">
        <route edges="gneE3"/>
    </vehicle>
    <vehicle id="0#4.20" depart="67.00" departPos="free" departSpeed="max">
        <route edges="gneE3"/>
    </vehicle>
    <vehicle id="1#2.24" depart="67.00" departPos="free" departSpeed="max">
        <route edges="gneE2"/>
    </vehicle>
    <vehicle id="1#4.19" depart="67.00" departPos="free" departSpeed="max">
        <route edges="gneE2"/>
    </vehicle>
    <vehicle id="0#0.29" depart="68.00" departPos="free" departSpeed="max">
        <route edges="gneE3"/>
    </vehicle>
    <vehicle id="1#2.25" depart="68.00" departPos="free" departSpeed="max">
        <route edges="gneE2"/>
    </vehicle>
    <vehicle id="1#0.21" depart="69.00" departPos="free" departSpeed="max">
        <route edges="gneE2"/>
    </vehicle>
    <vehicle id="1#1.21" depart="69.00" departPos="free" departSpeed="max">
        <route edges="gneE2"/>
    </vehicle>
    <vehicle id="1#3.14" depart="69.00" departPos="free" departSpeed="max">
        <route edges="gneE2"/>
    </vehicle>
    <vehicle id="0#0.30" depart="70.00" departPos="free" departSpeed="max">
        <route edges="gneE3"/>
    </vehicle>
    <vehicle id="1#3.15" depart="70.00" departPos="free" departSpeed="max">
        <route edges="gneE2"/>
    </vehicle>
    <vehicle id="1#4.20" depart="70.00" departPos="free" departSpeed="max">
        <route edges="gneE2"/>
    </vehicle>
    <vehicle id="0#0.31" depart="71.00" departPos="free" departSpeed="max">
        <route edges="gneE3"/>
    </vehicle>
    <vehicle id="0#1.28" depart="71.00" departPos="free" departSpeed="max">
        <route edges="gneE3"/>
    </vehicle>
    <vehicle id="0#4.21" depart="71.00" departPos="free" departSpeed="max">
        <route edges="gneE3"/>
    </vehicle>
    <vehicle id="1#1.22" depart="71.00" departPos="free" departSpeed="max">
        <route edges="gneE2"/>
    </vehicle>
    <vehicle id="1#2.26" depart="71.00" departPos="free" departSpeed="max">
        <route edges="gneE2"/>
    </vehicle>
    <vehicle id="1#4.21" depart="71.00" departPos="free" departSpeed="max">
        <route edges="gneE2"/>
    </vehicle>
    <vehicle id="0#0.32" depart="72.00" departPos="free" departSpeed="max">
        <route edges="gneE3"/>
    </vehicle>
    <vehicle id="0#3.20" depart="72.00" departPos="free" departSpeed="max">
        <route edges="gneE3"/>
    </vehicle>