<?xml version="1.0" encoding="UTF-8"?>

<net version="1.6" junctionCornerDetail="5" limitTurnSpeed="5.50" xmlns:xsi="http://www.w3.org/2001/XMLSchema-instance" xsi:noNamespaceSchemaLocation="http://sumo.dlr.de/xsd/net_file.xsd">

    <location netOffset="0.00,0.00" convBoundary="0.00,0.00,600.00,0.00" origBoundary="-10000000000.00,-10000000000.00,10000000000.00,10000000000.00" projParameter="!"/>

    <edge id="gneE2" from="gneJ3" to="gneJ4" priority="-1">
        <lane id="gneE2_0" index="0" speed="1" length="600.00" shape="0.00,-8.00 600.00,-8.00"/>
        <lane id="gneE2_1" index="1" speed="1" length="600.00" shape="0.00,-4.80 600.00,-4.80"/>
        <lane id="gneE2_2" index="2" speed="1" length="600.00" shape="0.00,-1.60 600.00,-1.60"/>
    </edge>
    <edge id="gneE3" from="gneJ4" to="gneJ3" priority="-1">
        <lane id="gneE3_0" index="0" speed="1" length="600.00" shape="600.00,8.00 0.00,8.00"/>
        <lane id="gneE3_1" index="1" speed="1" length="600.00" shape="600.00,4.80 0.00,4.80"/>
        <lane id="gneE3_2" index="2" speed="1" length="600.00" shape="600.00,1.60 0.00,1.60"/>
    </edge>

    <junction id="gneJ3" type="dead_end" x="0.00" y="0.00" incLanes="gneE3_0 gneE3_1 gneE3_2" intLanes="" shape="0.00,0.00 0.00,9.60 0.00,0.00"/>
    <junction id="gneJ4" type="dead_end" x="600.00" y="0.00" incLanes="gneE2_0 gneE2_1 gneE2_2" intLanes="" shape="600.00,0.00 600.00,-9.60 600.00,0.00"/>

</net>
