<?xml version="1.0" encoding="UTF-8"?>

<!-- generated on Thu Jan 28 18:37:45 2021 by Eclipse SUMO duarouter Version 1.8.0
<configuration xmlns:xsi="http://www.w3.org/2001/XMLSchema-instance" xsi:noNamespaceSchemaLocation="http://sumo.dlr.de/xsd/duarouterConfiguration.xsd">

    <input>
        <net-file value="174_1Highway.net.xml"/>
        <route-files value="174_1Highway.flow.xml"/>
    </input>

    <output>
        <output-file value="174_1Highway.rou.xml"/>
        <alternatives-output value="174_1Highway.rou.alt.xml"/>
    </output>

    <time>
        <begin value="0"/>
        <end value="1000"/>
    </time>

    <report>
        <no-warnings value="true"/>
        <ignore-errors value="true"/>
        <no-step-log value="true"/>
    </report>

</configuration>
-->

<routes xmlns:xsi="http://www.w3.org/2001/XMLSchema-instance" xsi:noNamespaceSchemaLocation="http://sumo.dlr.de/xsd/routes_file.xsd">
    <vehicle id="0#4.0" depart="2.00" departPos="free" departSpeed="max">
        <route edges="gneE3"/>
    </vehicle>
    <vehicle id="0#1.0" depart="3.00" departPos="free" departSpeed="max">
        <route edges="gneE3"/>
    </vehicle>
    <vehicle id="0#3.0" depart="3.00" departPos="free" departSpeed="max">
        <route edges="gneE3"/>
    </vehicle>
    <vehicle id="1#2.0" depart="5.00" departPos="free" departSpeed="max">
        <route edges="gneE2"/>
    </vehicle>
    <vehicle id="0#1.1" depart="9.00" departPos="free" departSpeed="max">
        <route edges="gneE3"/>
    </vehicle>
    <vehicle id="0#0.0" depart="10.00" departPos="free" departSpeed="max">
        <route edges="gneE3"/>
    </vehicle>
    <vehicle id="1#2.1" depart="19.00" departPos="free" departSpeed="max">
        <route edges="gneE2"/>
    </vehicle>
    <vehicle id="0#4.1" depart="20.00" departPos="free" departSpeed="max">
        <route edges="gneE3"/>
    </vehicle>
    <vehicle id="0#1.2" depart="21.00" departPos="free" departSpeed="max">
        <route edges="gneE3"/>
    </vehicle>
    <vehicle id="1#2.2" depart="21.00" departPos="free" departSpeed="max">
        <route edges="gneE2"/>
    </vehicle>
    <vehicle id="1#4.0" depart="26.00" departPos="free" departSpeed="max">
        <route edges="gneE2"/>
    </vehicle>
    <vehicle id="1#1.0" depart="27.00" departPos="free" departSpeed="max">
        <route edges="gneE2"/>
    </vehicle>
    <vehicle id="0#4.2" depart="29.00" departPos="free" departSpeed="max">
        <route edges="gneE3"/>
    </vehicle>
    <vehicle id="0#0.1" depart="30.00" departPos="free" departSpeed="max">
        <route edges="gneE3"/>
    </vehicle>
    <vehicle id="0#0.2" depart="35.00" departPos="free" departSpeed="max">
        <route edges="gneE3"/>
    </vehicle>
    <vehicle id="0#4.3" depart="36.00" departPos="free" departSpeed="max">
        <route edges="gneE3"/>
    </vehicle>
    <vehicle id="1#1.1" depart="37.00" departPos="free" departSpeed="max">
        <route edges="gneE2"/>
    </vehicle>
    <vehicle id="0#1.3" depart="40.00" departPos="free" departSpeed="max">
        <route edges="gneE3"/>
    </vehicle>
    <vehicle id="1#0.0" depart="40.00" departPos="free" departSpeed="max">
        <route edges="gneE2"/>
    </vehicle>
    <vehicle id="0#1.4" depart="44.00" departPos="free" departSpeed="max">
        <route edges="gneE3"/>
    </vehicle>
    <vehicle id="0#1.5" depart="45.00" departPos="free" departSpeed="max">
        <route edges="gneE3"/>
    </vehicle>
    <vehicle id="1#4.1" depart="45.00" departPos="free" departSpeed="max">
        <route edges="gneE2"/>
    </vehicle>
    <vehicle id="0#2.0" depart="46.00" departPos="free" departSpeed="max">
        <route edges="gneE3"/>
    </vehicle>
    <vehicle id="1#4.2" depart="47.00" departPos="free" departSpeed="max">
        <route edges="gneE2"/>
    </vehicle>
    <vehicle id="1#1.2" depart="61.00" departPos="free" departSpeed="max">
        <route edges="gneE2"/>
    </vehicle>
    <vehicle id="0#0.3" depart="63.00" departPos="free" departSpeed="max">
        <route edges="gneE3"/>
    </vehicle>
    <vehicle id="0#4.4" depart="63.00" departPos="free" departSpeed="max">
        <route edges="gneE3"/>
    </vehicle>
    <vehicle id="1#0.1" depart="69.00" departPos="free" departSpeed="max">
        <route edges="gneE2"/>
    </vehicle>
    <vehicle id="1#0.2" depart="72.00" departPos="free" departSpeed="max">
        <route edges="gneE2"/>
    </vehicle>
    <vehicle id="1#1.3" depart="72.00" departPos="free" departSpeed="max">
        <route edges="gneE2"/>
    </vehicle>
    <vehicle id="1#2.3" depart="72.00" departPos="free" departSpeed="max">
        <route edges="gneE2"/>
    </vehicle>
    <vehicle id="1#3.0" depart="72.00" departPos="free" departSpeed="max">
        <route edges="gneE2"/>
    </vehicle>
    <vehicle id="0#2.1" depart="73.00" departPos="free" departSpeed="max">
        <route edges="gneE3"/>
    </vehicle>
    <vehicle id="0#1.6" depart="74.00" departPos="free" departSpeed="max">
        <route edges="gneE3"/>
    </vehicle>
    <vehicle id="0#1.7" depart="80.00" departPos="free" departSpeed="max">
        <route edges="gneE3"/>
    </vehicle>
    <vehicle id="0#2.2" depart="81.00" departPos="free" departSpeed="max">
        <route edges="gneE3"/>
    </vehicle>
    <vehicle id="1#2.4" depart="81.00" departPos="free" departSpeed="max">
        <route edges="gneE2"/>
    </vehicle>
    <vehicle id="0#0.4" depart="92.00" departPos="free" departSpeed="max">
        <route edges="gneE3"/>
    </vehicle>
    <vehicle id="0#2.3" depart="94.00" departPos="free" departSpeed="max">
        <route edges="gneE3"/>
    </vehicle>
    <vehicle id="1#3.1" depart="94.00" departPos="free" departSpeed="max">
        <route edges="gneE2"/>
    </vehicle>
    <vehicle id="0#2.4" depart="95.00" departPos="free" departSpeed="max">
        <route edges="gneE3"/>
    </vehicle>
    <vehicle id="1#4.3" depart="95.00" departPos="free" departSpeed="max">
        <route edges="gneE2"/>
    </vehicle>
    <vehicle id="1#0.3" depart="100.00" departPos="free" departSpeed="max">
        <route edges="gneE2"/>
    </vehicle>
    <vehicle id="0#1.8" depart="103.00" departPos="free" departSpeed="max">
        <route edges="gneE3"/>
    </vehicle>
    <vehicle id="0#2.5" depart="110.00" departPos="free" departSpeed="max">
        <route edges="gneE3"/>
    </vehicle>
    <vehicle id="0#1.9" depart="111.00" departPos="free" departSpeed="max">
        <route edges="gneE3"/>
    </vehicle>
    <vehicle id="1#2.5" depart="119.00" departPos="free" departSpeed="max">
        <route edges="gneE2"/>
    </vehicle>
    <vehicle id="0#4.5" depart="121.00" departPos="free" departSpeed="max">
        <route edges="gneE3"/>
    </vehicle>
    <vehicle id="1#2.6" depart="122.00" departPos="free" departSpeed="max">
        <route edges="gneE2"/>
    </vehicle>
    <vehicle id="1#1.4" depart="123.00" departPos="free" departSpeed="max">
        <route edges="gneE2"/>
    </vehicle>
    <vehicle id="1#4.4" depart="123.00" departPos="free" departSpeed="max">
        <route edges="gneE2"/>
    </vehicle>
    <vehicle id="1#1.5" depart="124.00" departPos="free" departSpeed="max">
        <route edges="gneE2"/>
    </vehicle>
    <vehicle id="1#2.7" depart="128.00" departPos="free" departSpeed="max">
        <route edges="gneE2"/>
    </vehicle>
    <vehicle id="0#4.6" depart="130.00" departPos="free" departSpeed="max">
        <route edges="gneE3"/>
    </vehicle>
    <vehicle id="1#3.2" depart="134.00" departPos="free" departSpeed="max">
        <route edges="gneE2"/>
    </vehicle>
    <vehicle id="0#3.1" depart="137.00" departPos="free" departSpeed="max">
        <route edges="gneE3"/>
    </vehicle>
    <vehicle id="1#2.8" depart="138.00" departPos="free" departSpeed="max">
        <route edges="gneE2"/>
    </vehicle>
    <vehicle id="0#0.5" depart="143.00" departPos="free" departSpeed="max">
        <route edges="gneE3"/>
    </vehicle>
    <vehicle id="1#0.4" depart="143.00" departPos="free" departSpeed="max">
        <route edges="gneE2"/>
    </vehicle>
    <vehicle id="1#4.5" depart="143.00" departPos="free" departSpeed="max">
        <route edges="gneE2"/>
    </vehicle>
    <vehicle id="1#3.3" depart="146.00" departPos="free" departSpeed="max">
        <route edges="gneE2"/>
    </vehicle>
    <vehicle id="1#4.6" depart="148.00" departPos="free" departSpeed="max">
        <route edges="gneE2"/>
    </vehicle>
    <vehicle id="0#4.7" depart="151.00" departPos="free" departSpeed="max">
        <route edges="gneE3"/>
    </vehicle>
    <vehicle id="1#3.4" depart="151.00" departPos="free" departSpeed="max">
        <route edges="gneE2"/>
    </vehicle>
    <vehicle id="0#0.6" depart="153.00" departPos="free" departSpeed="max">
        <route edges="gneE3"/>
    </vehicle>
    <vehicle id="0#0.7" depart="156.00" departPos="free" departSpeed="max">
        <route edges="gneE3"/>
    </vehicle>
    <vehicle id="0#1.10" depart="161.00" departPos="free" departSpeed="max">
        <route edges="gneE3"/>
    </vehicle>
    <vehicle id="1#3.5" depart="162.00" departPos="free" departSpeed="max">
        <route edges="gneE2"/>
    </vehicle>
    <vehicle id="0#2.6" depart="168.00" departPos="free" departSpeed="max">
        <route edges="gneE3"/>
    </vehicle>
    <vehicle id="0#1.11" depart="169.00" departPos="free" departSpeed="max">
        <route edges="gneE3"/>
    </vehicle>
    <vehicle id="1#4.7" depart="169.00" departPos="free" departSpeed="max">
        <route edges="gneE2"/>
    </vehicle>
    <vehicle id="1#1.6" depart="173.00" departPos="free" departSpeed="max">
        <route edges="gneE2"/>
    </vehicle>
    <vehicle id="0#4.8" depart="177.00" departPos="free" departSpeed="max">
        <route edges="gneE3"/>
    </vehicle>
    <vehicle id="0#4.9" depart="178.00" departPos="free" departSpeed="max">
        <route edges="gneE3"/>
    </vehicle>
    <vehicle id="1#3.6" depart="179.00" departPos="free" departSpeed="max">
        <route edges="gneE2"/>
    </vehicle>
    <vehicle id="1#0.5" depart="187.00" departPos="free" departSpeed="max">
        <route edges="gneE2"/>
    </vehicle>
    <vehicle id="0#2.7" depart="193.00" departPos="free" departSpeed="max">
        <route edges="gneE3"/>
    </vehicle>
    <vehicle id="1#1.7" depart="195.00" departPos="free" departSpeed="max">
        <route edges="gneE2"/>
    </vehicle>
    <vehicle id="0#2.8" depart="196.00" departPos="free" departSpeed="max">
        <route edges="gneE3"/>
    </vehicle>
    <vehicle id="0#3.2" depart="198.00" departPos="free" departSpeed="max">
        <route edges="gneE3"/>
    </vehicle>
    <vehicle id="1#4.8" depart="200.00" departPos="free" departSpeed="max">
        <route edges="gneE2"/>
    </vehicle>
    <vehicle id="0#1.12" depart="202.00" departPos="free" departSpeed="max">
        <route edges="gneE3"/>
    </vehicle>
    <vehicle id="0#3.3" depart="209.00" departPos="free" departSpeed="max">
        <route edges="gneE3"/>
    </vehicle>
    <vehicle id="1#3.7" depart="210.00" departPos="free" departSpeed="max">
        <route edges="gneE2"/>
    </vehicle>
    <vehicle id="1#4.9" depart="216.00" departPos="free" departSpeed="max">
        <route edges="gneE2"/>
    </vehicle>
    <vehicle id="1#4.10" depart="217.00" departPos="free" departSpeed="max">
        <route edges="gneE2"/>
    </vehicle>
    <vehicle id="0#2.9" depart="220.00" departPos="free" departSpeed="max">
        <route edges="gneE3"/>
    </vehicle>
    <vehicle id="0#0.8" depart="221.00" departPos="free" departSpeed="max">
        <route edges="gneE3"/>
    </vehicle>
    <vehicle id="1#0.6" depart="222.00" departPos="free" departSpeed="max">
        <route edges="gneE2"/>
    </vehicle>
    <vehicle id="0#1.13" depart="226.00" departPos="free" departSpeed="max">
        <route edges="gneE3"/>
    </vehicle>
    <vehicle id="0#3.4" depart="231.00" departPos="free" departSpeed="max">
        <route edges="gneE3"/>
    </vehicle>
    <vehicle id="0#2.10" depart="233.00" departPos="free" departSpeed="max">
        <route edges="gneE3"/>
    </vehicle>
    <vehicle id="0#4.10" depart="233.00" departPos="free" departSpeed="max">
        <route edges="gneE3"/>
    </vehicle>
    <vehicle id="1#1.8" depart="238.00" departPos="free" departSpeed="max">
        <route edges="gneE2"/>
    </vehicle>
    <vehicle id="1#2.9" depart="239.00" departPos="free" departSpeed="max">
        <route edges="gneE2"/>
    </vehicle>
    <vehicle id="0#2.11" depart="240.00" departPos="free" departSpeed="max">
        <route edges="gneE3"/>
    </vehicle>
    <vehicle id="0#4.11" depart="241.00" departPos="free" departSpeed="max">
        <route edges="gneE3"/>
    </vehicle>
    <vehicle id="1#3.8" depart="242.00" departPos="free" departSpeed="max">
        <route edges="gneE2"/>
    </vehicle>
    <vehicle id="1#1.9" depart="243.00" departPos="free" departSpeed="max">
        <route edges="gneE2"/>
    </vehicle>
    <vehicle id="0#3.5" depart="245.00" departPos="free" departSpeed="max">
        <route edges="gneE3"/>
    </vehicle>
    <vehicle id="0#3.6" depart="251.00" departPos="free" departSpeed="max">
        <route edges="gneE3"/>
    </vehicle>
    <vehicle id="1#2.10" depart="251.00" departPos="free" departSpeed="max">
        <route edges="gneE2"/>
    </vehicle>
    <vehicle id="1#4.11" depart="252.00" departPos="free" departSpeed="max">
        <route edges="gneE2"/>
    </vehicle>
    <vehicle id="1#1.10" depart="253.00" departPos="free" departSpeed="max">
        <route edges="gneE2"/>
    </vehicle>
    <vehicle id="1#2.11" depart="253.00" departPos="free" departSpeed="max">
        <route edges="gneE2"/>
    </vehicle>
    <vehicle id="0#3.7" depart="255.00" departPos="free" departSpeed="max">
        <route edges="gneE3"/>
    </vehicle>
    <vehicle id="1#2.12" depart="255.00" departPos="free" departSpeed="max">
        <route edges="gneE2"/>
    </vehicle>
    <vehicle id="0#1.14" depart="259.00" departPos="free" departSpeed="max">
        <route edges="gneE3"/>
    </vehicle>
    <vehicle id="1#3.9" depart="260.00" departPos="free" departSpeed="max">
        <route edges="gneE2"/>
    </vehicle>
    <vehicle id="1#4.12" depart="260.00" departPos="free" departSpeed="max">
        <route edges="gneE2"/>
    </vehicle>
    <vehicle id="0#0.9" depart="266.00" departPos="free" departSpeed="max">
        <route edges="gneE3"/>
    </vehicle>
    <vehicle id="0#3.8" depart="266.00" departPos="free" departSpeed="max">
        <route edges="gneE3"/>
    </vehicle>
    <vehicle id="0#0.10" depart="270.00" departPos="free" departSpeed="max">
        <route edges="gneE3"/>
    </vehicle>
    <vehicle id="0#0.11" depart="272.00" departPos="free" departSpeed="max">
        <route edges="gneE3"/>
    </vehicle>
    <vehicle id="1#1.11" depart="273.00" departPos="free" departSpeed="max">
        <route edges="gneE2"/>
    </vehicle>
    <vehicle id="1#1.12" depart="274.00" departPos="free" departSpeed="max">
        <route edges="gneE2"/>
    </vehicle>
    <vehicle id="1#1.13" depart="275.00" departPos="free" departSpeed="max">
        <route edges="gneE2"/>
    </vehicle>
    <vehicle id="0#4.12" depart="278.00" departPos="free" departSpeed="max">
        <route edges="gneE3"/>
    </vehicle>
    <vehicle id="0#3.9" depart="280.00" departPos="free" departSpeed="max">
        <route edges="gneE3"/>
    </vehicle>
    <vehicle id="0#4.13" depart="280.00" departPos="free" departSpeed="max">
        <route edges="gneE3"/>
    </vehicle>
    <vehicle id="0#0.12" depart="282.00" departPos="free" departSpeed="max">
        <route edges="gneE3"/>
    </vehicle>
    <vehicle id="0#4.14" depart="292.00" departPos="free" departSpeed="max">
        <route edges="gneE3"/>
    </vehicle>
    <vehicle id="0#0.13" depart="293.00" departPos="free" departSpeed="max">
        <route edges="gneE3"/>
    </vehicle>
    <vehicle id="0#4.15" depart="294.00" departPos="free" departSpeed="max">
        <route edges="gneE3"/>
    </vehicle>
    <vehicle id="1#4.13" depart="300.00" departPos="free" departSpeed="max">
        <route edges="gneE2"/>
    </vehicle>
    <vehicle id="1#0.7" depart="303.00" departPos="free" departSpeed="max">
        <route edges="gneE2"/>
    </vehicle>
    <vehicle id="0#1.15" depart="307.00" departPos="free" departSpeed="max">
        <route edges="gneE3"/>
    </vehicle>
    <vehicle id="1#0.8" depart="307.00" departPos="free" departSpeed="max">
        <route edges="gneE2"/>
    </vehicle>
    <vehicle id="1#4.14" depart="310.00" departPos="free" departSpeed="max">
        <route edges="gneE2"/>
    </vehicle>
    <vehicle id="1#2.13" depart="317.00" departPos="free" departSpeed="max">
        <route edges="gneE2"/>
    </vehicle>
    <vehicle id="1#4.15" depart="317.00" departPos="free" departSpeed="max">
        <route edges="gneE2"/>
    </vehicle>
    <vehicle id="1#2.14" depart="318.00" departPos="free" departSpeed="max">
        <route edges="gneE2"/>
    </vehicle>
    <vehicle id="0#3.10" depart="322.00" departPos="free" departSpeed="max">
        <route edges="gneE3"/>
    </vehicle>
    <vehicle id="1#3.10" depart="322.00" departPos="free" departSpeed="max">
        <route edges="gneE2"/>
    </vehicle>
    <vehicle id="1#3.11" depart="325.00" departPos="free" departSpeed="max">
        <route edges="gneE2"/>
    </vehicle>
    <vehicle id="1#1.14" depart="328.00" departPos="free" departSpeed="max">
        <route edges="gneE2"/>
    </vehicle>
    <vehicle id="1#2.15" depart="328.00" departPos="free" departSpeed="max">
        <route edges="gneE2"/>
    </vehicle>
    <vehicle id="1#0.9" depart="331.00" departPos="free" departSpeed="max">
        <route edges="gneE2"/>
    </vehicle>
    <vehicle id="0#0.14" depart="334.00" departPos="free" departSpeed="max">
        <route edges="gneE3"/>
    </vehicle>
    <vehicle id="0#4.16" depart="337.00" departPos="free" departSpeed="max">
        <route edges="gneE3"/>
    </vehicle>
    <vehicle id="0#1.16" depart="343.00" departPos="free" departSpeed="max">
        <route edges="gneE3"/>
    </vehicle>
    <vehicle id="0#3.11" depart="344.00" departPos="free" departSpeed="max">
        <route edges="gneE3"/>
    </vehicle>
    <vehicle id="1#3.12" depart="345.00" departPos="free" departSpeed="max">
        <route edges="gneE2"/>
    </vehicle>
    <vehicle id="1#1.15" depart="347.00" departPos="free" departSpeed="max">
        <route edges="gneE2"/>
    </vehicle>
    <vehicle id="0#1.17" depart="349.00" departPos="free" departSpeed="max">
        <route edges="gneE3"/>
    </vehicle>
    <vehicle id="0#4.17" depart="350.00" departPos="free" departSpeed="max">
        <route edges="gneE3"/>
    </vehicle>
    <vehicle id="0#2.12" depart="351.00" departPos="free" departSpeed="max">
        <route edges="gneE3"/>
    </vehicle>
    <vehicle id="1#1.16" depart="351.00" departPos="free" departSpeed="max">
        <route edges="gneE2"/>
    </vehicle>
    <vehicle id="0#0.15" depart="357.00" departPos="free" departSpeed="max">
        <route edges="gneE3"/>
    </vehicle>
    <vehicle id="0#0.16" depart="360.00" departPos="free" departSpeed="max">
        <route edges="gneE3"/>
    </vehicle>
    <vehicle id="1#1.17" depart="364.00" departPos="free" departSpeed="max">
        <route edges="gneE2"/>
    </vehicle>
    <vehicle id="0#0.17" depart="366.00" departPos="free" departSpeed="max">
        <route edges="gneE3"/>
    </vehicle>
    <vehicle id="1#0.10" depart="375.00" departPos="free" departSpeed="max">
        <route edges="gneE2"/>
    </vehicle>
    <vehicle id="1#0.11" depart="386.00" departPos="free" departSpeed="max">
        <route edges="gneE2"/>
    </vehicle>
    <vehicle id="1#1.18" depart="386.00" departPos="free" departSpeed="max">
        <route edges="gneE2"/>
    </vehicle>
    <vehicle id="0#0.18" depart="388.00" departPos="free" departSpeed="max">
        <route edges="gneE3"/>
    </vehicle>
    <vehicle id="1#1.19" depart="389.00" departPos="free" departSpeed="max">
        <route edges="gneE2"/>
    </vehicle>
    <vehicle id="1#2.16" depart="390.00" departPos="free" departSpeed="max">
        <route edges="gneE2"/>
    </vehicle>
    <vehicle id="1#1.20" depart="391.00" departPos="free" departSpeed="max">
        <route edges="gneE2"/>
    </vehicle>
    <vehicle id="1#2.17" depart="393.00" departPos="free" departSpeed="max">
        <route edges="gneE2"/>
    </vehicle>
    <vehicle id="1#0.12" depart="398.00" departPos="free" departSpeed="max">
        <route edges="gneE2"/>
    </vehicle>
    <vehicle id="1#4.16" depart="405.00" departPos="free" departSpeed="max">
        <route edges="gneE2"/>
    </vehicle>
    <vehicle id="1#4.17" depart="409.00" departPos="free" departSpeed="max">
        <route edges="gneE2"/>
    </vehicle>
    <vehicle id="0#0.19" depart="425.00" departPos="free" departSpeed="max">
        <route edges="gneE3"/>
    </vehicle>
    <vehicle id="0#2.13" depart="426.00" departPos="free" departSpeed="max">
        <route edges="gneE3"/>
    </vehicle>
    <vehicle id="0#1.18" depart="428.00" departPos="free" departSpeed="max">
        <route edges="gneE3"/>
    </vehicle>
    <vehicle id="0#1.19" depart="442.00" departPos="free" departSpeed="max">
        <route edges="gneE3"/>
    </vehicle>
    <vehicle id="0#4.18" depart="443.00" departPos="free" departSpeed="max">
        <route edges="gneE3"/>
    </vehicle>
    <vehicle id="0#2.14" depart="445.00" departPos="free" departSpeed="max">
        <route edges="gneE3"/>
    </vehicle>
    <vehicle id="1#1.21" depart="447.00" departPos="free" departSpeed="max">
        <route edges="gneE2"/>
    </vehicle>
    <vehicle id="0#0.20" depart="449.00" departPos="free" departSpeed="max">
        <route edges="gneE3"/>
    </vehicle>
    <vehicle id="0#3.12" depart="453.00" departPos="free" departSpeed="max">
        <route edges="gneE3"/>
    </vehicle>
    <vehicle id="0#2.15" depart="454.00" departPos="free" departSpeed="max">
        <route edges="gneE3"/>
    </vehicle>
    <vehicle id="0#1.20" depart="464.00" departPos="free" departSpeed="max">
        <route edges="gneE3"/>
    </vehicle>
    <vehicle id="1#0.13" depart="466.00" departPos="free" departSpeed="max">
        <route edges="gneE2"/>
    </vehicle>
    <vehicle id="0#2.16" depart="469.00" departPos="free" departSpeed="max">
        <route edges="gneE3"/>
    </vehicle>
    <vehicle id="1#1.22" depart="471.00" departPos="free" departSpeed="max">
        <route edges="gneE2"/>
    </vehicle>
    <vehicle id="1#3.13" depart="472.00" departPos="free" departSpeed="max">
        <route edges="gneE2"/>
    </vehicle>
    <vehicle id="0#1.21" depart="473.00" departPos="free" departSpeed="max">
        <route edges="gneE3"/>
    </vehicle>
    <vehicle id="1#4.18" depart="473.00" departPos="free" departSpeed="max">
        <route edges="gneE2"/>
    </vehicle>
    <vehicle id="0#3.13" depart="489.00" departPos="free" departSpeed="max">
        <route edges="gneE3"/>
    </vehicle>
    <vehicle id="1#1.23" depart="490.00" departPos="free" departSpeed="max">
        <route edges="gneE2"/>
    </vehicle>
    <vehicle id="0#3.14" depart="496.00" departPos="free" departSpeed="max">
        <route edges="gneE3"/>
    </vehicle>
    <vehicle id="1#3.14" depart="500.00" departPos="free" departSpeed="max">
        <route edges="gneE2"/>
    </vehicle>
    <vehicle id="0#3.15" depart="502.00" departPos="free" departSpeed="max">
        <route edges="gneE3"/>
    </vehicle>
    <vehicle id="0#0.21" depart="504.00" departPos="free" departSpeed="max">
        <route edges="gneE3"/>
    </vehicle>
    <vehicle id="0#3.16" depart="506.00" departPos="free" departSpeed="max">
        <route edges="gneE3"/>
    </vehicle>
    <vehicle id="1#1.24" depart="506.00" departPos="free" departSpeed="max">
        <route edges="gneE2"/>
    </vehicle>
    <vehicle id="1#1.25" depart="509.00" departPos="free" departSpeed="max">
        <route edges="gneE2"/>
    </vehicle>
    <vehicle id="1#0.14" depart="514.00" departPos="free" departSpeed="max">
        <route edges="gneE2"/>
    </vehicle>
    <vehicle id="1#4.19" depart="522.00" departPos="free" departSpeed="max">
        <route edges="gneE2"/>
    </vehicle>
    <vehicle id="0#0.22" depart="523.00" departPos="free" departSpeed="max">
        <route edges="gneE3"/>
    </vehicle>
    <vehicle id="0#3.17" depart="524.00" departPos="free" departSpeed="max">
        <route edges="gneE3"/>
    </vehicle>
    <vehicle id="1#0.15" depart="524.00" departPos="free" departSpeed="max">
        <route edges="gneE2"/>
    </vehicle>
    <vehicle id="1#1.26" depart="524.00" departPos="free" departSpeed="max">
        <route edges="gneE2"/>
    </vehicle>
    <vehicle id="0#0.23" depart="534.00" departPos="free" departSpeed="max">
        <route edges="gneE3"/>
    </vehicle>
    <vehicle id="1#2.18" depart="535.00" departPos="free" departSpeed="max">
        <route edges="gneE2"/>
    </vehicle>
    <vehicle id="0#3.18" depart="540.00" departPos="free" departSpeed="max">
        <route edges="gneE3"/>
    </vehicle>
    <vehicle id="1#4.20" depart="542.00" departPos="free" departSpeed="max">
        <route edges="gneE2"/>
    </vehicle>
    <vehicle id="1#3.15" depart="543.00" departPos="free" departSpeed="max">
        <route edges="gneE2"/>
    </vehicle>
    <vehicle id="1#0.16" depart="547.00" departPos="free" departSpeed="max">
        <route edges="gneE2"/>
    </vehicle>
    <vehicle id="1#3.16" depart="557.00" departPos="free" departSpeed="max">
        <route edges="gneE2"/>
    </vehicle>
    <vehicle id="0#3.19" depart="558.00" departPos="free" departSpeed="max">
        <route edges="gneE3"/>
    </vehicle>
    <vehicle id="0#0.24" depart="561.00" departPos="free" departSpeed="max">
        <route edges="gneE3"/>
    </vehicle>
    <vehicle id="1#4.21" depart="565.00" departPos="free" departSpeed="max">
        <route edges="gneE2"/>
    </vehicle>
    <vehicle id="0#0.25" depart="566.00" departPos="free" departSpeed="max">
        <route edges="gneE3"/>
    </vehicle>
    <vehicle id="0#0.26" depart="567.00" departPos="free" departSpeed="max">
        <route edges="gneE3"/>
    </vehicle>
    <vehicle id="0#2.17" depart="568.00" departPos="free" departSpeed="max">
        <route edges="gneE3"/>
    </vehicle>
    <vehicle id="0#4.19" depart="569.00" departPos="free" departSpeed="max">
        <route edges="gneE3"/>
    </vehicle>
    <vehicle id="0#4.20" depart="572.00" departPos="free" departSpeed="max">
        <route edges="gneE3"/>
    </vehicle>
    <vehicle id="1#3.17" depart="573.00" departPos="free" departSpeed="max">
        <route edges="gneE2"/>
    </vehicle>
    <vehicle id="1#1.27" depart="577.00" departPos="free" departSpeed="max">
        <route edges="gneE2"/>
    </vehicle>
    <vehicle id="1#1.28" depart="579.00" departPos="free" departSpeed="max">
        <route edges="gneE2"/>
    </vehicle>
    <vehicle id="0#3.20" depart="585.00" departPos="free" departSpeed="max">
        <route edges="gneE3"/>
    </vehicle>
    <vehicle id="1#4.22" depart="587.00" departPos="free" departSpeed="max">
        <route edges="gneE2"/>
    </vehicle>
    <vehicle id="1#4.23" depart="588.00" departPos="free" departSpeed="max">
        <route edges="gneE2"/>
    </vehicle>
    <vehicle id="0#2.18" depart="590.00" departPos="free" departSpeed="max">
        <route edges="gneE3"/>
    </vehicle>
    <vehicle id="1#2.19" depart="593.00" departPos="free" departSpeed="max">
        <route edges="gneE2"/>
    </vehicle>
    <vehicle id="1#3.18" depart="595.00" departPos="free" departSpeed="max">
        <route edges="gneE2"/>
    </vehicle>
    <vehicle id="0#4.21" depart="597.00" departPos="free" departSpeed="max">
        <route edges="gneE3"/>
    </vehicle>
    <vehicle id="1#0.17" depart="606.00" departPos="free" departSpeed="max">
        <route edges="gneE2"/>
    </vehicle>
    <vehicle id="1#0.18" depart="610.00" departPos="free" departSpeed="max">
        <route edges="gneE2"/>
    </vehicle>
    <vehicle id="1#4.24" depart="610.00" departPos="free" departSpeed="max">
        <route edges="gneE2"/>
    </vehicle>
    <vehicle id="1#0.19" depart="614.00" departPos="free" departSpeed="max">
        <route edges="gneE2"/>
    </vehicle>
    <vehicle id="0#1.22" depart="615.00" departPos="free" departSpeed="max">
        <route edges="gneE3"/>
    </vehicle>
    <vehicle id="1#0.20" depart="615.00" departPos="free" departSpeed="max">
        <route edges="gneE2"/>
    </vehicle>
    <vehicle id="1#3.19" depart="617.00" departPos="free" departSpeed="max">
        <route edges="gneE2"/>
    </vehicle>
    <vehicle id="0#1.23" depart="623.00" departPos="free" departSpeed="max">
        <route edges="gneE3"/>
    </vehicle>
    <vehicle id="0#0.27" depart="627.00" departPos="free" departSpeed="max">
        <route edges="gneE3"/>
    </vehicle>
    <vehicle id="1#2.20" depart="630.00" departPos="free" departSpeed="max">
        <route edges="gneE2"/>
    </vehicle>
    <vehicle id="0#2.19" depart="631.00" departPos="free" departSpeed="max">
        <route edges="gneE3"/>
    </vehicle>
    <vehicle id="0#1.24" depart="636.00" departPos="free" departSpeed="max">
        <route edges="gneE3"/>
    </vehicle>
    <vehicle id="0#1.25" depart="637.00" departPos="free" departSpeed="max">
        <route edges="gneE3"/>
    </vehicle>
    <vehicle id="0#0.28" depart="643.00" departPos="free" departSpeed="max">
        <route edges="gneE3"/>
    </vehicle>
    <vehicle id="1#3.20" depart="643.00" departPos="free" departSpeed="max">
        <route edges="gneE2"/>
    </vehicle>
    <vehicle id="0#0.29" depart="644.00" departPos="free" departSpeed="max">
        <route edges="gneE3"/>
    </vehicle>
    <vehicle id="1#2.21" depart="644.00" departPos="free" departSpeed="max">
        <route edges="gneE2"/>
    </vehicle>