<?xml version="1.0" encoding="UTF-8"?>

<!-- generated on Tue Jan 14 11:08:22 2020 by SUMO netgenerate Version 0.32.0
<?xml version="1.0" encoding="UTF-8"?>

<configuration xmlns:xsi="http://www.w3.org/2001/XMLSchema-instance" xsi:noNamespaceSchemaLocation="http://sumo.dlr.de/xsd/netgenerateConfiguration.xsd">

    <grid_network>
        <grid value="true"/>
        <grid.number value="2"/>
        <grid.x-length value="200"/>
        <grid.y-length value="2000"/>
    </grid_network>

    <output>
        <output-file value="/home/aime/Documents/CAN/CAN_SUMO/examples/veins/CAN2kmTLS.net.xml"/>
    </output>

    <tls_building>
        <tls.guess value="true"/>
    </tls_building>

    <building_defaults>
        <default.lanenumber value="3"/>
    </building_defaults>

</configuration>
-->

<net version="0.27" xmlns:xsi="http://www.w3.org/2001/XMLSchema-instance" xsi:noNamespaceSchemaLocation="http://sumo.dlr.de/xsd/net_file.xsd">

    <location netOffset="0.00,0.00" convBoundary="0.00,0.00,200.00,2000.00" origBoundary="0.00,0.00,200.00,2000.00" projParameter="!"/>

    <edge id=":0/0_0" function="internal">
        <lane id=":0/0_0_0" index="0" speed="13.90" length="29.19" shape="-8.25,9.85 -7.12,1.93 -3.73,-3.72 1.93,-7.12 9.85,-8.25"/>
    </edge>
    <edge id=":0/0_1" function="internal">
        <lane id=":0/0_1_0" index="0" speed="13.90" length="23.87" shape="-4.95,9.85 -4.03,3.38 -1.25,-1.25 3.37,-4.03 9.85,-4.95"/>
    </edge>
    <edge id=":0/0_2" function="internal">
        <lane id=":0/0_2_0" index="0" speed="13.90" length="18.55" shape="-1.65,9.85 -0.93,4.82 1.22,1.22 4.82,-0.93 9.85,-1.65"/>
    </edge>
    <edge id=":0/0_3" function="internal">
        <lane id=":0/0_3_0" index="0" speed="13.90" length="2.69" shape="-1.65,9.85 -0.82,8.61 0.00,8.20 0.25,8.33"/>
    </edge>
    <edge id=":0/0_8" function="internal">
        <lane id=":0/0_8_0" index="0" speed="13.90" length="2.13" shape="0.25,8.33 0.83,8.61 1.65,9.85"/>
    </edge>
    <edge id=":0/0_4" function="internal">
        <lane id=":0/0_4_0" index="0" speed="13.90" length="2.58" shape="9.85,8.25 9.15,8.35 8.65,8.65 8.35,9.15 8.25,9.85"/>
    </edge>
    <edge id=":0/0_5" function="internal">
        <lane id=":0/0_5_0" index="0" speed="13.90" length="7.90" shape="9.85,4.95 7.71,5.26 6.17,6.18 5.26,7.71 4.95,9.85"/>
    </edge>
    <edge id=":0/0_6" function="internal">
        <lane id=":0/0_6_0" index="0" speed="13.90" length="13.22" shape="9.85,1.65 6.26,2.16 3.70,3.70 2.16,6.26 1.65,9.85"/>
    </edge>
    <edge id=":0/0_7" function="internal">
        <lane id=":0/0_7_0" index="0" speed="13.90" length="2.20" shape="9.85,1.65 8.61,0.83 8.29,0.19"/>
    </edge>
    <edge id=":0/0_9" function="internal">
        <lane id=":0/0_9_0" index="0" speed="13.90" length="2.62" shape="8.29,0.19 8.20,0.00 8.61,-0.83 9.85,-1.65"/>
    </edge>
    <edge id=":0/1_0" function="internal">
        <lane id=":0/1_0_0" index="0" speed="13.90" length="29.19" shape="9.85,2008.25 1.93,2007.12 -3.73,2003.72 -7.12,1998.07 -8.25,1990.15"/>
    </edge>
    <edge id=":0/1_1" function="internal">
        <lane id=":0/1_1_0" index="0" speed="13.90" length="23.87" shape="9.85,2004.95 3.37,2004.03 -1.25,2001.25 -4.03,1996.63 -4.95,1990.15"/>
    </edge>
    <edge id=":0/1_2" function="internal">
        <lane id=":0/1_2_0" index="0" speed="13.90" length="18.55" shape="9.85,2001.65 4.82,2000.93 1.22,1998.78 -0.93,1995.18 -1.65,1990.15"/>
    </edge>
    <edge id=":0/1_3" function="internal">
        <lane id=":0/1_3_0" index="0" speed="13.90" length="2.69" shape="9.85,2001.65 8.61,2000.83 8.20,2000.00 8.33,1999.75"/>
    </edge>
    <edge id=":0/1_8" function="internal">
        <lane id=":0/1_8_0" index="0" speed="13.90" length="2.13" shape="8.33,1999.75 8.61,1999.17 9.85,1998.35"/>
    </edge>
    <edge id=":0/1_4" function="internal">
        <lane id=":0/1_4_0" index="0" speed="13.90" length="2.58" shape="8.25,1990.15 8.35,1990.85 8.65,1991.35 9.15,1991.65 9.85,1991.75"/>
    </edge>
    <edge id=":0/1_5" function="internal">
        <lane id=":0/1_5_0" index="0" speed="13.90" length="7.90" shape="4.95,1990.15 5.26,1992.29 6.17,1993.83 7.71,1994.74 9.85,1995.05"/>
    </edge>
    <edge id=":0/1_6" function="internal">
        <lane id=":0/1_6_0" index="0" speed="13.90" length="13.22" shape="1.65,1990.15 2.16,1993.74 3.70,1996.30 6.26,1997.84 9.85,1998.35"/>
    </edge>
    <edge id=":0/1_7" function="internal">
        <lane id=":0/1_7_0" index="0" speed="13.90" length="2.20" shape="1.65,1990.15 0.83,1991.39 0.19,1991.71"/>
    </edge>
    <edge id=":0/1_9" function="internal">
        <lane id=":0/1_9_0" index="0" speed="13.90" length="2.62" shape="0.19,1991.71 0.00,1991.80 -0.83,1991.39 -1.65,1990.15"/>
    </edge>
    <edge id=":1/0_0" function="internal">
        <lane id=":1/0_0_0" index="0" speed="13.90" length="2.58" shape="191.75,9.85 191.65,9.15 191.35,8.65 190.85,8.35 190.15,8.25"/>
    </edge>
    <edge id=":1/0_1" function="internal">
        <lane id=":1/0_1_0" index="0" speed="13.90" length="7.90" shape="195.05,9.85 194.74,7.71 193.83,6.18 192.29,5.26 190.15,4.95"/>
    </edge>
    <edge id=":1/0_2" function="internal">
        <lane id=":1/0_2_0" index="0" speed="13.90" length="13.22" shape="198.35,9.85 197.84,6.26 196.30,3.70 193.74,2.16 190.15,1.65"/>
    </edge>
    <edge id=":1/0_3" function="internal">
        <lane id=":1/0_3_0" index="0" speed="13.90" length="2.20" shape="198.35,9.85 199.17,8.61 199.81,8.29"/>
    </edge>
    <edge id=":1/0_8" function="internal">
        <lane id=":1/0_8_0" index="0" speed="13.90" length="2.62" shape="199.81,8.29 200.00,8.20 200.82,8.61 201.65,9.85"/>
    </edge>
    <edge id=":1/0_4" function="internal">
        <lane id=":1/0_4_0" index="0" speed="13.90" length="29.19" shape="190.15,-8.25 198.07,-7.12 203.72,-3.72 207.12,1.93 208.25,9.85"/>
    </edge>
    <edge id=":1/0_5" function="internal">
        <lane id=":1/0_5_0" index="0" speed="13.90" length="23.87" shape="190.15,-4.95 196.62,-4.02 201.25,-1.25 204.02,3.38 204.95,9.85"/>
    </edge>
    <edge id=":1/0_6" function="internal">
        <lane id=":1/0_6_0" index="0" speed="13.90" length="18.55" shape="190.15,-1.65 195.18,-0.93 198.78,1.23 200.93,4.82 201.65,9.85"/>
    </edge>
    <edge id=":1/0_7" function="internal">
        <lane id=":1/0_7_0" index="0" speed="13.90" length="2.69" shape="190.15,-1.65 191.39,-0.83 191.80,0.00 191.67,0.25"/>
    </edge>
    <edge id=":1/0_9" function="internal">
        <lane id=":1/0_9_0" index="0" speed="13.90" length="2.13" shape="191.67,0.25 191.39,0.83 190.15,1.65"/>
    </edge>
    <edge id=":1/1_0" function="internal">
        <lane id=":1/1_0_0" index="0" speed="13.90" length="29.19" shape="208.25,1990.15 207.12,1998.07 203.72,2003.72 198.07,2007.12 190.15,2008.25"/>
    </edge>
    <edge id=":1/1_1" function="internal">
        <lane id=":1/1_1_0" index="0" speed="13.90" length="23.87" shape="204.95,1990.15 204.03,1996.63 201.25,2001.25 196.62,2004.03 190.15,2004.95"/>
    </edge>
    <edge id=":1/1_2" function="internal">
        <lane id=":1/1_2_0" index="0" speed="13.90" length="18.55" shape="201.65,1990.15 200.93,1995.18 198.78,1998.78 195.18,2000.93 190.15,2001.65"/>
    </edge>
    <edge id=":1/1_3" function="internal">
        <lane id=":1/1_3_0" index="0" speed="13.90" length="2.69" shape="201.65,1990.15 200.83,1991.39 200.00,1991.80 199.75,1991.67"/>
    </edge>
    <edge id=":1/1_8" function="internal">
        <lane id=":1/1_8_0" index="0" speed="13.90" length="2.13" shape="199.75,1991.67 199.18,1991.39 198.35,1990.15"/>
    </edge>
    <edge id=":1/1_4" function="internal">
        <lane id=":1/1_4_0" index="0" speed="13.90" length="2.58" shape="190.15,1991.75 190.85,1991.65 191.35,1991.35 191.65,1990.85 191.75,1990.15"/>
    </edge>
    <edge id=":1/1_5" function="internal">
        <lane id=":1/1_5_0" index="0" speed="13.90" length="7.90" shape="190.15,1995.05 192.29,1994.74 193.82,1993.82 194.74,1992.29 195.05,1990.15"/>
    </edge>
    <edge id=":1/1_6" function="internal">
        <lane id=":1/1_6_0" index="0" speed="13.90" length="13.22" shape="190.15,1998.35 193.74,1997.84 196.30,1996.30 197.84,1993.74 198.35,1990.15"/>
    </edge>
    <edge id=":1/1_7" function="internal">
        <lane id=":1/1_7_0" index="0" speed="13.90" length="2.20" shape="190.15,1998.35 191.39,1999.17 191.71,1999.81"/>
    </edge>
    <edge id=":1/1_9" function="internal">
        <lane id=":1/1_9_0" index="0" speed="13.90" length="2.62" shape="191.71,1999.81 191.80,2000.00 191.39,2000.83 190.15,2001.65"/>
    </edge>

    <edge id="0/0to0/1" from="0/0" to="0/1" priority="-1">
        <lane id="0/0to0/1_0" index="0" speed="13.90" length="1980.30" shape="8.25,9.85 8.25,1990.15"/>
        <lane id="0/0to0/1_1" index="1" speed="13.90" length="1980.30" shape="4.95,9.85 4.95,1990.15"/>
        <lane id="0/0to0/1_2" index="2" speed="13.90" length="1980.30" shape="1.65,9.85 1.65,1990.15"/>
    </edge>
    <edge id="0/0to1/0" from="0/0" to="1/0" priority="-1">
        <lane id="0/0to1/0_0" index="0" speed="13.90" length="180.30" shape="9.85,-8.25 190.15,-8.25"/>
        <lane id="0/0to1/0_1" index="1" speed="13.90" length="180.30" shape="9.85,-4.95 190.15,-4.95"/>
        <lane id="0/0to1/0_2" index="2" speed="13.90" length="180.30" shape="9.85,-1.65 190.15,-1.65"/>
    </edge>
    <edge id="0/1to0/0" from="0/1" to="0/0" priority="-1">
        <lane id="0/1to0/0_0" index="0" speed="13.90" length="1980.30" shape="-8.25,1990.15 -8.25,9.85"/>
        <lane id="0/1to0/0_1" index="1" speed="13.90" length="1980.30" shape="-4.95,1990.15 -4.95,9.85"/>
        <lane id="0/1to0/0_2" index="2" speed="13.90" length="1980.30" shape="-1.65,1990.15 -1.65,9.85"/>
    </edge>
    <edge id="0/1to1/1" from="0/1" to="1/1" priority="-1">
        <lane id="0/1to1/1_0" index="0" speed="13.90" length="180.30" shape="9.85,1991.75 190.15,1991.75"/>
        <lane id="0/1to1/1_1" index="1" speed="13.90" length="180.30" shape="9.85,1995.05 190.15,1995.05"/>
        <lane id="0/1to1/1_2" index="2" speed="13.90" length="180.30" shape="9.85,1998.35 190.15,1998.35"/>
    </edge>
    <edge id="1/0to0/0" from="1/0" to="0/0" priority="-1">
        <lane id="1/0to0/0_0" index="0" speed="13.90" length="180.30" shape="190.15,8.25 9.85,8.25"/>
        <lane id="1/0to0/0_1" index="1" speed="13.90" length="180.30" shape="190.15,4.95 9.85,4.95"/>
        <lane id="1/0to0/0_2" index="2" speed="13.90" length="180.30" shape="190.15,1.65 9.85,1.65"/>
    </edge>
    <edge id="1/0to1/1" from="1/0" to="1/1" priority="-1">
        <lane id="1/0to1/1_0" index="0" speed="13.90" length="1980.30" shape="208.25,9.85 208.25,1990.15"/>
        <lane id="1/0to1/1_1" index="1" speed="13.90" length="1980.30" shape="204.95,9.85 204.95,1990.15"/>
        <lane id="1/0to1/1_2" index="2" speed="13.90" length="1980.30" shape="201.65,9.85 201.65,1990.15"/>
    </edge>
    <edge id="1/1to0/1" from="1/1" to="0/1" priority="-1">
        <lane id="1/1to0/1_0" index="0" speed="13.90" length="180.30" shape="190.15,2008.25 9.85,2008.25"/>
        <lane id="1/1to0/1_1" index="1" speed="13.90" length="180.30" shape="190.15,2004.95 9.85,2004.95"/>
        <lane id="1/1to0/1_2" index="2" speed="13.90" length="180.30" shape="190.15,2001.65 9.85,2001.65"/>
    </edge>
    <edge id="1/1to1/0" from="1/1" to="1/0" priority="-1">
        <lane id="1/1to1/0_0" index="0" speed="13.90" length="1980.30" shape="191.75,1990.15 191.75,9.85"/>
        <lane id="1/1to1/0_1" index="1" speed="13.90" length="1980.30" shape="195.05,1990.15 195.05,9.85"/>
        <lane id="1/1to1/0_2" index="2" speed="13.90" length="1980.30" shape="198.35,1990.15 198.35,9.85"/>
    </edge>

    <junction id="0/0" type="priority" x="0.00" y="0.00" incLanes="0/1to0/0_0 0/1to0/0_1 0/1to0/0_2 1/0to0/0_0 1/0to0/0_1 1/0to0/0_2" intLanes=":0/0_0_0 :0/0_1_0 :0/0_2_0 :0/0_8_0 :0/0_4_0 :0/0_5_0 :0/0_6_0 :0/0_9_0" shape="-9.85,9.85 9.85,9.85 9.85,-9.85">
        <request index="0" response="00000000" foes="10000000" cont="0"/>
        <request index="1" response="00000000" foes="10000000" cont="0"/>
        <request index="2" response="00000000" foes="10000000" cont="0"/>
        <request index="3" response="01110000" foes="01110000" cont="1"/>
        <request index="4" response="00000000" foes="00001000" cont="0"/>
        <request index="5" response="00000000" foes="00001000" cont="0"/>
        <request index="6" response="00000000" foes="00001000" cont="0"/>
        <request index="7" response="00000111" foes="00000111" cont="1"/>
    </junction>
    <junction id="0/1" type="priority" x="0.00" y="2000.00" incLanes="1/1to0/1_0 1/1to0/1_1 1/1to0/1_2 0/0to0/1_0 0/0to0/1_1 0/0to0/1_2" intLanes=":0/1_0_0 :0/1_1_0 :0/1_2_0 :0/1_8_0 :0/1_4_0 :0/1_5_0 :0/1_6_0 :0/1_9_0" shape="9.85,2009.85 9.85,1990.15 -9.85,1990.15">
        <request index="0" response="00000000" foes="10000000" cont="0"/>
        <request index="1" response="00000000" foes="10000000" cont="0"/>
        <request index="2" response="00000000" foes="10000000" cont="0"/>
        <request index="3" response="01110000" foes="01110000" cont="1"/>
        <request index="4" response="00000000" foes="00001000" cont="0"/>
        <request index="5" response="00000000" foes="00001000" cont="0"/>
        <request index="6" response="00000000" foes="00001000" cont="0"/>
        <request index="7" response="00000111" foes="00000111" cont="1"/>
    </junction>
    <junction id="1/0" type="priority" x="200.00" y="0.00" incLanes="1/1to1/0_0 1/1to1/0_1 1/1to1/0_2 0/0to1/0_0 0/0to1/0_1 0/0to1/0_2" intLanes=":1/0_0_0 :1/0_1_0 :1/0_2_0 :1/0_8_0 :1/0_4_0 :1/0_5_0 :1/0_6_0 :1/0_9_0" shape="190.15,9.85 209.85,9.85 190.15,-9.85">
        <request index="0" response="00000000" foes="10000000" cont="0"/>
        <request index="1" response="00000000" foes="10000000" cont="0"/>
        <request index="2" response="00000000" foes="10000000" cont="0"/>
        <request index="3" response="01110000" foes="01110000" cont="1"/>
        <request index="4" response="00000000" foes="00001000" cont="0"/>
        <request index="5" response="00000000" foes="00001000" cont="0"/>
        <request index="6" response="00000000" foes="00001000" cont="0"/>
        <request index="7" response="00000111" foes="00000111" cont="1"/>
    </junction>
    <junction id="1/1" type="priority" x="200.00" y="2000.00" incLanes="1/0to1/1_0 1/0to1/1_1 1/0to1/1_2 0/1to1/1_0 0/1to1/1_1 0/1to1/1_2" intLanes=":1/1_0_0 :1/1_1_0 :1/1_2_0 :1/1_8_0 :1/1_4_0 :1/1_5_0 :1/1_6_0 :1/1_9_0" shape="209.85,1990.15 190.15,1990.15 190.15,2009.85">
        <request index="0" response="00000000" foes="10000000" cont="0"/>
        <request index="1" response="00000000" foes="10000000" cont="0"/>
        <request index="2" response="00000000" foes="10000000" cont="0"/>
        <request index="3" response="01110000" foes="01110000" cont="1"/>
        <request index="4" response="00000000" foes="00001000" cont="0"/>
        <request index="5" response="00000000" foes="00001000" cont="0"/>
        <request index="6" response="00000000" foes="00001000" cont="0"/>
        <request index="7" response="00000111" foes="00000111" cont="1"/>
    </junction>

    <junction id=":0/0_8_0" type="internal" x="0.25" y="8.33" incLanes=":0/0_3_0 1/0to0/0_0 1/0to0/0_1 1/0to0/0_2" intLanes=":0/0_4_0 :0/0_5_0 :0/0_6_0"/>
    <junction id=":0/0_9_0" type="internal" x="8.29" y="0.19" incLanes=":0/0_7_0 0/1to0/0_0 0/1to0/0_1 0/1to0/0_2" intLanes=":0/0_0_0 :0/0_1_0 :0/0_2_0"/>
    <junction id=":0/1_8_0" type="internal" x="8.33" y="1999.75" incLanes=":0/1_3_0 0/0to0/1_0 0/0to0/1_1 0/0to0/1_2" intLanes=":0/1_4_0 :0/1_5_0 :0/1_6_0"/>
    <junction id=":0/1_9_0" type="internal" x="0.19" y="1991.71" incLanes=":0/1_7_0 1/1to0/1_0 1/1to0/1_1 1/1to0/1_2" intLanes=":0/1_0_0 :0/1_1_0 :0/1_2_0"/>
    <junction id=":1/0_8_0" type="internal" x="199.81" y="8.29" incLanes=":1/0_3_0 0/0to1/0_0 0/0to1/0_1 0/0to1/0_2" intLanes=":1/0_4_0 :1/0_5_0 :1/0_6_0"/>
    <junction id=":1/0_9_0" type="internal" x="191.67" y="0.25" incLanes=":1/0_7_0 1/1to1/0_0 1/1to1/0_1 1/1to1/0_2" intLanes=":1/0_0_0 :1/0_1_0 :1/0_2_0"/>
    <junction id=":1/1_8_0" type="internal" x="199.75" y="1991.67" incLanes=":1/1_3_0 0/1to1/1_0 0/1to1/1_1 0/1to1/1_2" intLanes=":1/1_4_0 :1/1_5_0 :1/1_6_0"/>
    <junction id=":1/1_9_0" type="internal" x="191.71" y="1999.81" incLanes=":1/1_7_0 1/0to1/1_0 1/0to1/1_1 1/0to1/1_2" intLanes=":1/1_0_0 :1/1_1_0 :1/1_2_0"/>

    <connection from="0/0to0/1" to="0/1to1/1" fromLane="0" toLane="0" via=":0/1_4_0" dir="r" state="M"/>
    <connection from="0/0to0/1" to="0/1to1/1" fromLane="1" toLane="1" via=":0/1_5_0" dir="r" state="M"/>
    <connection from="0/0to0/1" to="0/1to1/1" fromLane="2" toLane="2" via=":0/1_6_0" dir="r" state="M"/>
    <connection from="0/0to0/1" to="0/1to0/0" fromLane="2" toLane="2" via=":0/1_7_0" dir="t" state="m"/>
    <connection from="0/0to1/0" to="1/0to1/1" fromLane="0" toLane="0" via=":1/0_4_0" dir="l" state="M"/>
    <connection from="0/0to1/0" to="1/0to1/1" fromLane="1" toLane="1" via=":1/0_5_0" dir="l" state="M"/>
    <connection from="0/0to1/0" to="1/0to1/1" fromLane="2" toLane="2" via=":1/0_6_0" dir="l" state="M"/>
    <connection from="0/0to1/0" to="1/0to0/0" fromLane="2" toLane="2" via=":1/0_7_0" dir="t" state="m"/>
    <connection from="0/1to0/0" to="0/0to1/0" fromLane="0" toLane="0" via=":0/0_0_0" dir="l" state="M"/>
    <connection from="0/1to0/0" to="0/0to1/0" fromLane="1" toLane="1" via=":0/0_1_0" dir="l" state="M"/>
    <connection from="0/1to0/0" to="0/0to1/0" fromLane="2" toLane="2" via=":0/0_2_0" dir="l" state="M"/>
    <connection from="0/1to0/0" to="0/0to0/1" fromLane="2" toLane="2" via=":0/0_3_0" dir="t" state="m"/>
    <connection from="0/1to1/1" to="1/1to1/0" fromLane="0" toLane="0" via=":1/1_4_0" dir="r" state="M"/>
    <connection from="0/1to1/1" to="1/1to1/0" fromLane="1" toLane="1" via=":1/1_5_0" dir="r" state="M"/>
    <connection from="0/1to1/1" to="1/1to1/0" fromLane="2" toLane="2" via=":1/1_6_0" dir="r" state="M"/>
    <connection from="0/1to1/1" to="1/1to0/1" fromLane="2" toLane="2" via=":1/1_7_0" dir="t" state="m"/>
    <connection from="1/0to0/0" to="0/0to0/1" fromLane="0" toLane="0" via=":0/0_4_0" dir="r" state="M"/>
    <connection from="1/0to0/0" to="0/0to0/1" fromLane="1" toLane="1" via=":0/0_5_0" dir="r" state="M"/>
    <connection from="1/0to0/0" to="0/0to0/1" fromLane="2" toLane="2" via=":0/0_6_0" dir="r" state="M"/>
    <connection from="1/0to0/0" to="0/0to1/0" fromLane="2" toLane="2" via=":0/0_7_0" dir="t" state="m"/>
    <connection from="1/0to1/1" to="1/1to0/1" fromLane="0" toLane="0" via=":1/1_0_0" dir="l" state="M"/>
    <connection from="1/0to1/1" to="1/1to0/1" fromLane="1" toLane="1" via=":1/1_1_0" dir="l" state="M"/>
    <connection from="1/0to1/1" to="1/1to0/1" fromLane="2" toLane="2" via=":1/1_2_0" dir="l" state="M"/>
    <connection from="1/0to1/1" to="1/1to1/0" fromLane="2" toLane="2" via=":1/1_3_0" dir="t" state="m"/>
    <connection from="1/1to0/1" to="0/1to0/0" fromLane="0" toLane="0" via=":0/1_0_0" dir="l" state="M"/>
    <connection from="1/1to0/1" to="0/1to0/0" fromLane="1" toLane="1" via=":0/1_1_0" dir="l" state="M"/>
    <connection from="1/1to0/1" to="0/1to0/0" fromLane="2" toLane="2" via=":0/1_2_0" dir="l" state="M"/>
    <connection from="1/1to0/1" to="0/1to1/1" fromLane="2" toLane="2" via=":0/1_3_0" dir="t" state="m"/>
    <connection from="1/1to1/0" to="1/0to0/0" fromLane="0" toLane="0" via=":1/0_0_0" dir="r" state="M"/>
    <connection from="1/1to1/0" to="1/0to0/0" fromLane="1" toLane="1" via=":1/0_1_0" dir="r" state="M"/>
    <connection from="1/1to1/0" to="1/0to0/0" fromLane="2" toLane="2" via=":1/0_2_0" dir="r" state="M"/>
    <connection from="1/1to1/0" to="1/0to1/1" fromLane="2" toLane="2" via=":1/0_3_0" dir="t" state="m"/>

    <connection from=":0/0_0" to="0/0to1/0" fromLane="0" toLane="0" dir="l" state="M"/>
    <connection from=":0/0_1" to="0/0to1/0" fromLane="0" toLane="1" dir="l" state="M"/>
    <connection from=":0/0_2" to="0/0to1/0" fromLane="0" toLane="2" dir="l" state="M"/>
    <connection from=":0/0_3" to="0/0to0/1" fromLane="0" toLane="2" via=":0/0_8_0" dir="t" state="m"/>
    <connection from=":0/0_8" to="0/0to0/1" fromLane="0" toLane="2" dir="t" state="M"/>
    <connection from=":0/0_4" to="0/0to0/1" fromLane="0" toLane="0" dir="r" state="M"/>
    <connection from=":0/0_5" to="0/0to0/1" fromLane="0" toLane="1" dir="r" state="M"/>
    <connection from=":0/0_6" to="0/0to0/1" fromLane="0" toLane="2" dir="r" state="M"/>
    <connection from=":0/0_7" to="0/0to1/0" fromLane="0" toLane="2" via=":0/0_9_0" dir="t" state="m"/>
    <connection from=":0/0_9" to="0/0to1/0" fromLane="0" toLane="2" dir="t" state="M"/>
    <connection from=":0/1_0" to="0/1to0/0" fromLane="0" toLane="0" dir="l" state="M"/>
    <connection from=":0/1_1" to="0/1to0/0" fromLane="0" toLane="1" dir="l" state="M"/>
    <connection from=":0/1_2" to="0/1to0/0" fromLane="0" toLane="2" dir="l" state="M"/>
    <connection from=":0/1_3" to="0/1to1/1" fromLane="0" toLane="2" via=":0/1_8_0" dir="t" state="m"/>
    <connection from=":0/1_8" to="0/1to1/1" fromLane="0" toLane="2" dir="t" state="M"/>
    <connection from=":0/1_4" to="0/1to1/1" fromLane="0" toLane="0" dir="r" state="M"/>
    <connection from=":0/1_5" to="0/1to1/1" fromLane="0" toLane="1" dir="r" state="M"/>
    <connection from=":0/1_6" to="0/1to1/1" fromLane="0" toLane="2" dir="r" state="M"/>
    <connection from=":0/1_7" to="0/1to0/0" fromLane="0" toLane="2" via=":0/1_9_0" dir="t" state="m"/>
    <connection from=":0/1_9" to="0/1to0/0" fromLane="0" toLane="2" dir="t" state="M"/>
    <connection from=":1/0_0" to="1/0to0/0" fromLane="0" toLane="0" dir="r" state="M"/>
    <connection from=":1/0_1" to="1/0to0/0" fromLane="0" toLane="1" dir="r" state="M"/>
    <connection from=":1/0_2" to="1/0to0/0" fromLane="0" toLane="2" dir="r" state="M"/>
    <connection from=":1/0_3" to="1/0to1/1" fromLane="0" toLane="2" via=":1/0_8_0" dir="t" state="m"/>
    <connection from=":1/0_8" to="1/0to1/1" fromLane="0" toLane="2" dir="t" state="M"/>
    <connection from=":1/0_4" to="1/0to1/1" fromLane="0" toLane="0" dir="l" state="M"/>
    <connection from=":1/0_5" to="1/0to1/1" fromLane="0" toLane="1" dir="l" state="M"/>
    <connection from=":1/0_6" to="1/0to1/1" fromLane="0" toLane="2" dir="l" state="M"/>
    <connection from=":1/0_7" to="1/0to0/0" fromLane="0" toLane="2" via=":1/0_9_0" dir="t" state="m"/>
    <connection from=":1/0_9" to="1/0to0/0" fromLane="0" toLane="2" dir="t" state="M"/>
    <connection from=":1/1_0" to="1/1to0/1" fromLane="0" toLane="0" dir="l" state="M"/>
    <connection from=":1/1_1" to="1/1to0/1" fromLane="0" toLane="1" dir="l" state="M"/>
    <connection from=":1/1_2" to="1/1to0/1" fromLane="0" toLane="2" dir="l" state="M"/>
    <connection from=":1/1_3" to="1/1to1/0" fromLane="0" toLane="2" via=":1/1_8_0" dir="t" state="m"/>
    <connection from=":1/1_8" to="1/1to1/0" fromLane="0" toLane="2" dir="t" state="M"/>
    <connection from=":1/1_4" to="1/1to1/0" fromLane="0" toLane="0" dir="r" state="M"/>
    <connection from=":1/1_5" to="1/1to1/0" fromLane="0" toLane="1" dir="r" state="M"/>
    <connection from=":1/1_6" to="1/1to1/0" fromLane="0" toLane="2" dir="r" state="M"/>
    <connection from=":1/1_7" to="1/1to0/1" fromLane="0" toLane="2" via=":1/1_9_0" dir="t" state="m"/>
    <connection from=":1/1_9" to="1/1to0/1" fromLane="0" toLane="2" dir="t" state="M"/>

</net>
