<?xml version="1.0"?>
<!-- 
194 Cars leaving the Computer Science Building and campus of the University of Erlangen-Nuremberg
Copyright (C) 2008 Christoph Sommer <christoph.sommer@informatik.uni-erlangen.de>
Licensed under the Creative Commons Attribution-ShareAlike 2.0 license <http://creativecommons.org/licenses/by-sa/2.0/>
-->
<routes>
	  <!--<vType id="vtype0" accel="5.0" decel="5.0" sigma="0.5" tau="0.05" length="5" minGap="0" maxSpeed="22.22" laneChangeModel="BAM2019" color="1,1,0"/> -->
	 <vType id="vtype0" accel="5.0" decel="5.0" sigma="0.5" length="5" minGap="0.0" maxSpeed="22.2222" laneChangeModel="SL2015" color="1,1,0"/>  	
	<!--<vType id="vtype0" accel="2.6" decel="4.5" sigma="0.5" length="5" minGap="0.0" maxSpeed="14" color="1,1,0"/> --> 
	 
	<route id="route0" edges="0/1to0/0 "/> 
	<!--  <flow id="flow0" type="vtype0" route="route0" begin="0" period="0.125"/>   --> 	  
	<flow id="flow0" type="vtype0" route="route0" begin="0" period="2.5" departLane="1"/>   
</routes>
