<?xml version="1.0" encoding="UTF-8"?>

<!-- generated on Tue Jun 11 21:45:50 2019 by SUMO netgenerate Version 0.32.0
<?xml version="1.0" encoding="UTF-8"?>

<configuration xmlns:xsi="http://www.w3.org/2001/XMLSchema-instance" xsi:noNamespaceSchemaLocation="http://sumo.dlr.de/xsd/netgenerateConfiguration.xsd">

    <grid_network>
        <grid value="true"/>
        <grid.x-number value="3"/>
        <grid.y-number value="3"/>
        <grid.x-length value="200"/>
        <grid.y-length value="200"/>
    </grid_network>

    <output>
        <output-file value="/home/aime/Desktop/CAN2Map.net.xml"/>
    </output>

    <tls_building>
        <tls.guess value="true"/>
    </tls_building>

    <building_defaults>
        <default.lanenumber value="4"/>
    </building_defaults>

</configuration>
-->

<net version="0.27" xmlns:xsi="http://www.w3.org/2001/XMLSchema-instance" xsi:noNamespaceSchemaLocation="http://sumo.dlr.de/xsd/net_file.xsd">

    <location netOffset="0.00,0.00" convBoundary="0.00,0.00,400.00,400.00" origBoundary="0.00,0.00,400.00,400.00" projParameter="!"/>

    <edge id=":0/0_0" function="internal">
        <lane id=":0/0_0_0" index="0" speed="13.90" length="39.83" shape="-11.55,13.15 -10.01,2.34 -5.38,-5.38 2.34,-10.01 13.15,-11.55"/>
    </edge>
    <edge id=":0/0_1" function="internal">
        <lane id=":0/0_1_0" index="0" speed="13.90" length="34.51" shape="-8.25,13.15 -6.91,3.79 -2.90,-2.90 3.79,-6.91 13.15,-8.25"/>
    </edge>
    <edge id=":0/0_2" function="internal">
        <lane id=":0/0_2_0" index="0" speed="13.90" length="29.19" shape="-4.95,13.15 -3.82,5.23 -0.43,-0.43 5.23,-3.82 13.15,-4.95"/>
    </edge>
    <edge id=":0/0_3" function="internal">
        <lane id=":0/0_3_0" index="0" speed="13.90" length="23.87" shape="-1.65,13.15 -0.73,6.67 2.05,2.05 6.67,-0.73 13.15,-1.65"/>
    </edge>
    <edge id=":0/0_4" function="internal">
        <lane id=":0/0_4_0" index="0" speed="13.90" length="2.69" shape="-1.65,13.15 -0.83,11.91 -0.00,11.50 0.25,11.63"/>
    </edge>
    <edge id=":0/0_10" function="internal">
        <lane id=":0/0_10_0" index="0" speed="13.90" length="2.13" shape="0.25,11.63 0.82,11.91 1.65,13.15"/>
    </edge>
    <edge id=":0/0_5" function="internal">
        <lane id=":0/0_5_0" index="0" speed="13.90" length="2.58" shape="13.15,11.55 12.45,11.65 11.95,11.95 11.65,12.45 11.55,13.15"/>
    </edge>
    <edge id=":0/0_6" function="internal">
        <lane id=":0/0_6_0" index="0" speed="13.90" length="7.90" shape="13.15,8.25 11.01,8.56 9.47,9.47 8.56,11.01 8.25,13.15"/>
    </edge>
    <edge id=":0/0_7" function="internal">
        <lane id=":0/0_7_0" index="0" speed="13.90" length="13.22" shape="13.15,4.95 9.56,5.46 7.00,7.00 5.46,9.56 4.95,13.15"/>
    </edge>
    <edge id=":0/0_8" function="internal">
        <lane id=":0/0_8_0" index="0" speed="13.90" length="18.55" shape="13.15,1.65 8.12,2.37 4.53,4.52 2.37,8.12 1.65,13.15"/>
    </edge>
    <edge id=":0/0_9" function="internal">
        <lane id=":0/0_9_0" index="0" speed="13.90" length="2.20" shape="13.15,1.65 11.91,0.83 11.59,0.19"/>
    </edge>
    <edge id=":0/0_11" function="internal">
        <lane id=":0/0_11_0" index="0" speed="13.90" length="2.62" shape="11.59,0.19 11.50,0.00 11.91,-0.82 13.15,-1.65"/>
    </edge>
    <edge id=":0/1_0" function="internal">
        <lane id=":0/1_0_0" index="0" speed="13.90" length="29.30" shape="-11.55,214.65 -11.55,185.35"/>
        <lane id=":0/1_0_1" index="1" speed="13.90" length="29.30" shape="-8.25,214.65 -8.25,185.35"/>
        <lane id=":0/1_0_2" index="2" speed="13.90" length="29.30" shape="-4.95,214.65 -4.95,185.35"/>
        <lane id=":0/1_0_3" index="3" speed="13.90" length="29.30" shape="-1.65,214.65 -1.65,185.35"/>
    </edge>
    <edge id=":0/1_4" function="internal">
        <lane id=":0/1_4_0" index="0" speed="13.90" length="10.16" shape="-1.65,214.65 -0.63,206.08 0.05,204.71"/>
    </edge>
    <edge id=":0/1_5" function="internal">
        <lane id=":0/1_5_0" index="0" speed="13.90" length="8.53" shape="-1.65,214.65 -0.63,207.52 0.05,206.38"/>
    </edge>
    <edge id=":0/1_6" function="internal">
        <lane id=":0/1_6_0" index="0" speed="13.90" length="2.41" shape="-1.65,214.65 -0.83,213.41 0.00,213.00"/>
    </edge>
    <edge id=":0/1_20" function="internal">
        <lane id=":0/1_20_0" index="0" speed="13.90" length="18.84" shape="0.05,204.71 2.42,199.95 7.52,196.28 14.65,195.05"/>
    </edge>
    <edge id=":0/1_21" function="internal">
        <lane id=":0/1_21_0" index="0" speed="13.90" length="17.76" shape="0.05,206.38 2.42,202.42 7.52,199.37 14.65,198.35"/>
    </edge>
    <edge id=":0/1_22" function="internal">
        <lane id=":0/1_22_0" index="0" speed="13.90" length="2.41" shape="0.00,213.00 0.83,213.41 1.65,214.65"/>
    </edge>
    <edge id=":0/1_7" function="internal">
        <lane id=":0/1_7_0" index="0" speed="13.90" length="5.00" shape="14.65,211.55 13.29,211.74 12.32,212.33 11.74,213.29 11.55,214.65"/>
    </edge>
    <edge id=":0/1_8" function="internal">
        <lane id=":0/1_8_0" index="0" speed="13.90" length="10.32" shape="14.65,208.25 11.85,208.65 9.85,209.85 8.65,211.85 8.25,214.65"/>
    </edge>
    <edge id=":0/1_9" function="internal">
        <lane id=":0/1_9_0" index="0" speed="13.90" length="13.09" shape="14.65,208.25 10.41,208.65 7.38,209.85 5.56,211.85 4.95,214.65"/>
    </edge>
    <edge id=":0/1_10" function="internal">
        <lane id=":0/1_10_0" index="0" speed="13.90" length="31.61" shape="14.65,204.95 6.07,203.72 -0.05,200.05 -3.73,193.93 -4.95,185.35"/>
    </edge>
    <edge id=":0/1_11" function="internal">
        <lane id=":0/1_11_0" index="0" speed="13.90" length="26.29" shape="14.65,201.65 7.52,200.63 2.42,197.58 -0.63,192.48 -1.65,185.35"/>
    </edge>
    <edge id=":0/1_12" function="internal">
        <lane id=":0/1_12_0" index="0" speed="13.90" length="2.41" shape="14.65,201.65 13.41,200.83 13.00,200.00"/>
    </edge>
    <edge id=":0/1_23" function="internal">
        <lane id=":0/1_23_0" index="0" speed="13.90" length="2.41" shape="13.00,200.00 13.41,199.18 14.65,198.35"/>
    </edge>
    <edge id=":0/1_13" function="internal">
        <lane id=":0/1_13_0" index="0" speed="13.90" length="5.00" shape="11.55,185.35 11.74,186.71 12.32,187.68 13.29,188.26 14.65,188.45"/>
    </edge>
    <edge id=":0/1_14" function="internal">
        <lane id=":0/1_14_0" index="0" speed="13.90" length="7.85" shape="11.55,185.35 11.74,188.15 12.32,190.15 13.29,191.35 14.65,191.75"/>
    </edge>
    <edge id=":0/1_15" function="internal">
        <lane id=":0/1_15_0" index="0" speed="13.90" length="29.30" shape="11.55,185.35 11.55,214.65"/>
        <lane id=":0/1_15_1" index="1" speed="13.90" length="29.30" shape="8.25,185.35 8.25,214.65"/>
        <lane id=":0/1_15_2" index="2" speed="13.90" length="29.30" shape="4.95,185.35 4.95,214.65"/>
        <lane id=":0/1_15_3" index="3" speed="13.90" length="29.30" shape="1.65,185.35 1.65,214.65"/>
    </edge>
    <edge id=":0/1_19" function="internal">
        <lane id=":0/1_19_0" index="0" speed="13.90" length="2.41" shape="1.65,185.35 0.83,186.59 0.00,187.00"/>
    </edge>
    <edge id=":0/1_24" function="internal">
        <lane id=":0/1_24_0" index="0" speed="13.90" length="2.41" shape="0.00,187.00 -0.83,186.59 -1.65,185.35"/>
    </edge>
    <edge id=":0/2_0" function="internal">
        <lane id=":0/2_0_0" index="0" speed="13.90" length="39.83" shape="13.15,411.55 2.34,410.01 -5.38,405.38 -10.01,397.66 -11.55,386.85"/>
    </edge>
    <edge id=":0/2_1" function="internal">
        <lane id=":0/2_1_0" index="0" speed="13.90" length="34.51" shape="13.15,408.25 3.79,406.91 -2.90,402.90 -6.91,396.21 -8.25,386.85"/>
    </edge>
    <edge id=":0/2_2" function="internal">
        <lane id=":0/2_2_0" index="0" speed="13.90" length="29.19" shape="13.15,404.95 5.23,403.82 -0.43,400.42 -3.82,394.77 -4.95,386.85"/>
    </edge>
    <edge id=":0/2_3" function="internal">
        <lane id=":0/2_3_0" index="0" speed="13.90" length="23.87" shape="13.15,401.65 6.67,400.73 2.05,397.95 -0.73,393.32 -1.65,386.85"/>
    </edge>
    <edge id=":0/2_4" function="internal">
        <lane id=":0/2_4_0" index="0" speed="13.90" length="2.69" shape="13.15,401.65 11.91,400.83 11.50,400.00 11.63,399.75"/>
    </edge>
    <edge id=":0/2_10" function="internal">
        <lane id=":0/2_10_0" index="0" speed="13.90" length="2.13" shape="11.63,399.75 11.91,399.18 13.15,398.35"/>
    </edge>
    <edge id=":0/2_5" function="internal">
        <lane id=":0/2_5_0" index="0" speed="13.90" length="2.58" shape="11.55,386.85 11.65,387.55 11.95,388.05 12.45,388.35 13.15,388.45"/>
    </edge>
    <edge id=":0/2_6" function="internal">
        <lane id=":0/2_6_0" index="0" speed="13.90" length="7.90" shape="8.25,386.85 8.56,388.99 9.47,390.52 11.01,391.44 13.15,391.75"/>
    </edge>
    <edge id=":0/2_7" function="internal">
        <lane id=":0/2_7_0" index="0" speed="13.90" length="13.22" shape="4.95,386.85 5.46,390.44 7.00,393.00 9.56,394.54 13.15,395.05"/>
    </edge>
    <edge id=":0/2_8" function="internal">
        <lane id=":0/2_8_0" index="0" speed="13.90" length="18.55" shape="1.65,386.85 2.37,391.88 4.52,395.48 8.12,397.63 13.15,398.35"/>
    </edge>
    <edge id=":0/2_9" function="internal">
        <lane id=":0/2_9_0" index="0" speed="13.90" length="2.20" shape="1.65,386.85 0.83,388.09 0.19,388.41"/>
    </edge>
    <edge id=":0/2_11" function="internal">
        <lane id=":0/2_11_0" index="0" speed="13.90" length="2.62" shape="0.19,388.41 0.00,388.50 -0.83,388.09 -1.65,386.85"/>
    </edge>
    <edge id=":1/0_0" function="internal">
        <lane id=":1/0_0_0" index="0" speed="13.90" length="5.00" shape="188.45,14.65 188.26,13.29 187.67,12.33 186.71,11.74 185.35,11.55"/>
    </edge>
    <edge id=":1/0_1" function="internal">
        <lane id=":1/0_1_0" index="0" speed="13.90" length="10.32" shape="191.75,14.65 191.35,11.85 190.15,9.85 188.15,8.65 185.35,8.25"/>
    </edge>
    <edge id=":1/0_2" function="internal">
        <lane id=":1/0_2_0" index="0" speed="13.90" length="13.09" shape="191.75,14.65 191.35,10.41 190.15,7.37 188.15,5.56 185.35,4.95"/>
    </edge>
    <edge id=":1/0_3" function="internal">
        <lane id=":1/0_3_0" index="0" speed="13.90" length="31.61" shape="195.05,14.65 196.28,6.07 199.95,-0.05 206.07,-3.73 214.65,-4.95"/>
    </edge>
    <edge id=":1/0_4" function="internal">
        <lane id=":1/0_4_0" index="0" speed="13.90" length="26.29" shape="198.35,14.65 199.37,7.52 202.42,2.42 207.52,-0.63 214.65,-1.65"/>
    </edge>
    <edge id=":1/0_5" function="internal">
        <lane id=":1/0_5_0" index="0" speed="13.90" length="2.41" shape="198.35,14.65 199.17,13.41 200.00,13.00"/>
    </edge>
    <edge id=":1/0_20" function="internal">
        <lane id=":1/0_20_0" index="0" speed="13.90" length="2.41" shape="200.00,13.00 200.82,13.41 201.65,14.65"/>
    </edge>
    <edge id=":1/0_6" function="internal">
        <lane id=":1/0_6_0" index="0" speed="13.90" length="5.00" shape="214.65,11.55 213.29,11.74 212.32,12.32 211.74,13.29 211.55,14.65"/>
    </edge>
    <edge id=":1/0_7" function="internal">
        <lane id=":1/0_7_0" index="0" speed="13.90" length="7.85" shape="214.65,11.55 211.85,11.74 209.85,12.32 208.65,13.29 208.25,14.65"/>
    </edge>
    <edge id=":1/0_8" function="internal">
        <lane id=":1/0_8_0" index="0" speed="13.90" length="29.30" shape="214.65,11.55 185.35,11.55"/>
        <lane id=":1/0_8_1" index="1" speed="13.90" length="29.30" shape="214.65,8.25 185.35,8.25"/>
        <lane id=":1/0_8_2" index="2" speed="13.90" length="29.30" shape="214.65,4.95 185.35,4.95"/>
        <lane id=":1/0_8_3" index="3" speed="13.90" length="29.30" shape="214.65,1.65 185.35,1.65"/>
    </edge>
    <edge id=":1/0_12" function="internal">
        <lane id=":1/0_12_0" index="0" speed="13.90" length="2.41" shape="214.65,1.65 213.41,0.83 213.00,0.00"/>
    </edge>
    <edge id=":1/0_21" function="internal">
        <lane id=":1/0_21_0" index="0" speed="13.90" length="2.41" shape="213.00,0.00 213.41,-0.83 214.65,-1.65"/>
    </edge>
    <edge id=":1/0_13" function="internal">
        <lane id=":1/0_13_0" index="0" speed="13.90" length="29.30" shape="185.35,-11.55 214.65,-11.55"/>
        <lane id=":1/0_13_1" index="1" speed="13.90" length="29.30" shape="185.35,-8.25 214.65,-8.25"/>
        <lane id=":1/0_13_2" index="2" speed="13.90" length="29.30" shape="185.35,-4.95 214.65,-4.95"/>
        <lane id=":1/0_13_3" index="3" speed="13.90" length="29.30" shape="185.35,-1.65 214.65,-1.65"/>
    </edge>
    <edge id=":1/0_17" function="internal">
        <lane id=":1/0_17_0" index="0" speed="13.90" length="10.16" shape="185.35,-1.65 193.92,-0.63 195.29,0.05"/>
    </edge>
    <edge id=":1/0_18" function="internal">
        <lane id=":1/0_18_0" index="0" speed="13.90" length="8.53" shape="185.35,-1.65 192.48,-0.63 193.62,0.05"/>
    </edge>
    <edge id=":1/0_19" function="internal">
        <lane id=":1/0_19_0" index="0" speed="13.90" length="2.41" shape="185.35,-1.65 186.59,-0.83 187.00,0.00"/>
    </edge>
    <edge id=":1/0_22" function="internal">
        <lane id=":1/0_22_0" index="0" speed="13.90" length="18.84" shape="195.29,0.05 200.05,2.42 203.72,7.52 204.95,14.65"/>
    </edge>
    <edge id=":1/0_23" function="internal">
        <lane id=":1/0_23_0" index="0" speed="13.90" length="17.76" shape="193.62,0.05 197.58,2.42 200.63,7.52 201.65,14.65"/>
    </edge>
    <edge id=":1/0_24" function="internal">
        <lane id=":1/0_24_0" index="0" speed="13.90" length="2.41" shape="187.00,0.00 186.59,0.83 185.35,1.65"/>
    </edge>
    <edge id=":1/1_0" function="internal">
        <lane id=":1/1_0_0" index="0" speed="13.90" length="5.00" shape="188.45,214.65 188.26,213.29 187.67,212.32 186.71,211.74 185.35,211.55"/>
    </edge>
    <edge id=":1/1_1" function="internal">
        <lane id=":1/1_1_0" index="0" speed="13.90" length="29.30" shape="188.45,214.65 188.45,185.35"/>
        <lane id=":1/1_1_1" index="1" speed="13.90" length="29.30" shape="191.75,214.65 191.75,185.35"/>
        <lane id=":1/1_1_2" index="2" speed="13.90" length="29.30" shape="195.05,214.65 195.05,185.35"/>
        <lane id=":1/1_1_3" index="3" speed="13.90" length="29.30" shape="198.35,214.65 198.35,185.35"/>
    </edge>
    <edge id=":1/1_5" function="internal">
        <lane id=":1/1_5_0" index="0" speed="13.90" length="8.53" shape="198.35,214.65 199.37,207.52 200.05,206.38"/>
    </edge>
    <edge id=":1/1_6" function="internal">
        <lane id=":1/1_6_0" index="0" speed="13.90" length="2.41" shape="198.35,214.65 199.17,213.41 200.00,213.00"/>
    </edge>
    <edge id=":1/1_30" function="internal">
        <lane id=":1/1_30_0" index="0" speed="13.90" length="17.76" shape="200.05,206.38 202.42,202.43 207.52,199.37 214.65,198.35"/>
    </edge>
    <edge id=":1/1_31" function="internal">
        <lane id=":1/1_31_0" index="0" speed="13.90" length="2.41" shape="200.00,213.00 200.82,213.41 201.65,214.65"/>
    </edge>
    <edge id=":1/1_7" function="internal">
        <lane id=":1/1_7_0" index="0" speed="13.90" length="5.00" shape="214.65,211.55 213.29,211.74 212.32,212.33 211.74,213.29 211.55,214.65"/>
    </edge>
    <edge id=":1/1_8" function="internal">
        <lane id=":1/1_8_0" index="0" speed="13.90" length="10.32" shape="214.65,208.25 211.85,208.65 209.85,209.85 208.65,211.85 208.25,214.65"/>
    </edge>
    <edge id=":1/1_9" function="internal">
        <lane id=":1/1_9_0" index="0" speed="13.90" length="29.38" shape="214.65,208.25 185.35,208.25"/>
        <lane id=":1/1_9_1" index="1" speed="13.90" length="29.38" shape="214.65,204.95 185.35,204.95"/>
        <lane id=":1/1_9_2" index="2" speed="13.90" length="29.38" shape="214.65,204.95 205.93,204.43 200.00,203.30 194.07,202.17 185.35,201.65"/>
    </edge>
    <edge id=":1/1_12" function="internal">
        <lane id=":1/1_12_0" index="0" speed="13.90" length="18.08" shape="214.65,204.95 206.08,203.72 199.95,200.05 198.78,198.09"/>
    </edge>
    <edge id=":1/1_13" function="internal">
        <lane id=":1/1_13_0" index="0" speed="13.90" length="9.67" shape="214.65,201.65 207.52,200.63 205.41,199.36"/>
    </edge>
    <edge id=":1/1_14" function="internal">
        <lane id=":1/1_14_0" index="0" speed="13.90" length="2.57" shape="214.65,201.65 213.41,200.83 213.00,200.00 213.07,199.86"/>
    </edge>
    <edge id=":1/1_32" function="internal">
        <lane id=":1/1_32_0" index="0" speed="13.90" length="13.52" shape="198.78,198.09 196.28,193.93 195.05,185.35"/>
    </edge>
    <edge id=":1/1_33" function="internal">
        <lane id=":1/1_33_0" index="0" speed="13.90" length="16.62" shape="205.41,199.36 202.42,197.58 199.37,192.48 198.35,185.35"/>
    </edge>
    <edge id=":1/1_34" function="internal">
        <lane id=":1/1_34_0" index="0" speed="13.90" length="2.25" shape="213.07,199.86 213.41,199.18 214.65,198.35"/>
    </edge>
    <edge id=":1/1_15" function="internal">
        <lane id=":1/1_15_0" index="0" speed="13.90" length="5.00" shape="211.55,185.35 211.74,186.71 212.33,187.68 213.29,188.26 214.65,188.45"/>
    </edge>
    <edge id=":1/1_16" function="internal">
        <lane id=":1/1_16_0" index="0" speed="13.90" length="29.30" shape="211.55,185.35 211.55,214.65"/>
        <lane id=":1/1_16_1" index="1" speed="13.90" length="29.30" shape="208.25,185.35 208.25,214.65"/>
        <lane id=":1/1_16_2" index="2" speed="13.90" length="29.30" shape="204.95,185.35 204.95,214.65"/>
        <lane id=":1/1_16_3" index="3" speed="13.90" length="29.30" shape="201.65,185.35 201.65,214.65"/>
    </edge>
    <edge id=":1/1_20" function="internal">
        <lane id=":1/1_20_0" index="0" speed="13.90" length="8.53" shape="201.65,185.35 200.63,192.48 199.95,193.62"/>
    </edge>
    <edge id=":1/1_21" function="internal">
        <lane id=":1/1_21_0" index="0" speed="13.90" length="2.41" shape="201.65,185.35 200.83,186.59 200.00,187.00"/>
    </edge>
    <edge id=":1/1_35" function="internal">
        <lane id=":1/1_35_0" index="0" speed="13.90" length="17.76" shape="199.95,193.62 197.58,197.58 192.48,200.63 185.35,201.65"/>
    </edge>
    <edge id=":1/1_36" function="internal">
        <lane id=":1/1_36_0" index="0" speed="13.90" length="2.41" shape="200.00,187.00 199.18,186.59 198.35,185.35"/>
    </edge>
    <edge id=":1/1_22" function="internal">
        <lane id=":1/1_22_0" index="0" speed="13.90" length="5.00" shape="185.35,188.45 186.71,188.26 187.68,187.67 188.26,186.71 188.45,185.35"/>
    </edge>
    <edge id=":1/1_23" function="internal">
        <lane id=":1/1_23_0" index="0" speed="13.90" length="10.32" shape="185.35,191.75 188.15,191.35 190.15,190.15 191.35,188.15 191.75,185.35"/>
    </edge>
    <edge id=":1/1_24" function="internal">
        <lane id=":1/1_24_0" index="0" speed="13.90" length="29.38" shape="185.35,191.75 214.65,191.75"/>
        <lane id=":1/1_24_1" index="1" speed="13.90" length="29.38" shape="185.35,195.05 214.65,195.05"/>
        <lane id=":1/1_24_2" index="2" speed="13.90" length="29.38" shape="185.35,195.05 194.07,195.57 200.00,196.70 205.93,197.83 214.65,198.35"/>
    </edge>
    <edge id=":1/1_27" function="internal">
        <lane id=":1/1_27_0" index="0" speed="13.90" length="18.08" shape="185.35,195.05 193.92,196.28 200.05,199.95 201.22,201.91"/>
    </edge>
    <edge id=":1/1_28" function="internal">
        <lane id=":1/1_28_0" index="0" speed="13.90" length="9.67" shape="185.35,198.35 192.48,199.37 194.59,200.64"/>
    </edge>
    <edge id=":1/1_29" function="internal">
        <lane id=":1/1_29_0" index="0" speed="13.90" length="2.57" shape="185.35,198.35 186.59,199.17 187.00,200.00 186.93,200.14"/>
    </edge>
    <edge id=":1/1_37" function="internal">
        <lane id=":1/1_37_0" index="0" speed="13.90" length="13.52" shape="201.22,201.91 203.72,206.07 204.95,214.65"/>
    </edge>
    <edge id=":1/1_38" function="internal">
        <lane id=":1/1_38_0" index="0" speed="13.90" length="16.62" shape="194.59,200.64 197.58,202.42 200.63,207.52 201.65,214.65"/>
    </edge>
    <edge id=":1/1_39" function="internal">
        <lane id=":1/1_39_0" index="0" speed="13.90" length="2.25" shape="186.93,200.14 186.59,200.82 185.35,201.65"/>
    </edge>
    <edge id=":1/2_0" function="internal">
        <lane id=":1/2_0_0" index="0" speed="13.90" length="29.30" shape="214.65,411.55 185.35,411.55"/>
        <lane id=":1/2_0_1" index="1" speed="13.90" length="29.30" shape="214.65,408.25 185.35,408.25"/>
        <lane id=":1/2_0_2" index="2" speed="13.90" length="29.30" shape="214.65,404.95 185.35,404.95"/>
        <lane id=":1/2_0_3" index="3" speed="13.90" length="29.30" shape="214.65,401.65 185.35,401.65"/>
    </edge>
    <edge id=":1/2_4" function="internal">
        <lane id=":1/2_4_0" index="0" speed="13.90" length="10.16" shape="214.65,401.65 206.08,400.63 204.71,399.95"/>
    </edge>
    <edge id=":1/2_5" function="internal">
        <lane id=":1/2_5_0" index="0" speed="13.90" length="8.53" shape="214.65,401.65 207.52,400.63 206.38,399.95"/>
    </edge>
    <edge id=":1/2_6" function="internal">
        <lane id=":1/2_6_0" index="0" speed="13.90" length="2.41" shape="214.65,401.65 213.41,400.83 213.00,400.00"/>
    </edge>
    <edge id=":1/2_20" function="internal">
        <lane id=":1/2_20_0" index="0" speed="13.90" length="18.84" shape="204.71,399.95 199.95,397.57 196.28,392.48 195.05,385.35"/>
    </edge>
    <edge id=":1/2_21" function="internal">
        <lane id=":1/2_21_0" index="0" speed="13.90" length="17.76" shape="206.38,399.95 202.42,397.57 199.37,392.48 198.35,385.35"/>
    </edge>
    <edge id=":1/2_22" function="internal">
        <lane id=":1/2_22_0" index="0" speed="13.90" length="2.41" shape="213.00,400.00 213.41,399.18 214.65,398.35"/>
    </edge>
    <edge id=":1/2_7" function="internal">
        <lane id=":1/2_7_0" index="0" speed="13.90" length="5.00" shape="211.55,385.35 211.74,386.71 212.33,387.68 213.29,388.26 214.65,388.45"/>
    </edge>
    <edge id=":1/2_8" function="internal">
        <lane id=":1/2_8_0" index="0" speed="13.90" length="10.32" shape="208.25,385.35 208.65,388.15 209.85,390.15 211.85,391.35 214.65,391.75"/>
    </edge>
    <edge id=":1/2_9" function="internal">
        <lane id=":1/2_9_0" index="0" speed="13.90" length="13.09" shape="208.25,385.35 208.65,389.59 209.85,392.62 211.85,394.44 214.65,395.05"/>
    </edge>
    <edge id=":1/2_10" function="internal">
        <lane id=":1/2_10_0" index="0" speed="13.90" length="31.61" shape="204.95,385.35 203.72,393.92 200.05,400.05 193.93,403.72 185.35,404.95"/>
    </edge>
    <edge id=":1/2_11" function="internal">
        <lane id=":1/2_11_0" index="0" speed="13.90" length="26.29" shape="201.65,385.35 200.63,392.48 197.58,397.57 192.48,400.63 185.35,401.65"/>
    </edge>
    <edge id=":1/2_12" function="internal">
        <lane id=":1/2_12_0" index="0" speed="13.90" length="2.41" shape="201.65,385.35 200.83,386.59 200.00,387.00"/>
    </edge>
    <edge id=":1/2_23" function="internal">
        <lane id=":1/2_23_0" index="0" speed="13.90" length="2.41" shape="200.00,387.00 199.18,386.59 198.35,385.35"/>
    </edge>
    <edge id=":1/2_13" function="internal">
        <lane id=":1/2_13_0" index="0" speed="13.90" length="5.00" shape="185.35,388.45 186.71,388.26 187.68,387.67 188.26,386.71 188.45,385.35"/>
    </edge>
    <edge id=":1/2_14" function="internal">
        <lane id=":1/2_14_0" index="0" speed="13.90" length="7.85" shape="185.35,388.45 188.15,388.26 190.15,387.67 191.35,386.71 191.75,385.35"/>
    </edge>
    <edge id=":1/2_15" function="internal">
        <lane id=":1/2_15_0" index="0" speed="13.90" length="29.30" shape="185.35,388.45 214.65,388.45"/>
        <lane id=":1/2_15_1" index="1" speed="13.90" length="29.30" shape="185.35,391.75 214.65,391.75"/>
        <lane id=":1/2_15_2" index="2" speed="13.90" length="29.30" shape="185.35,395.05 214.65,395.05"/>
        <lane id=":1/2_15_3" index="3" speed="13.90" length="29.30" shape="185.35,398.35 214.65,398.35"/>
    </edge>
    <edge id=":1/2_19" function="internal">
        <lane id=":1/2_19_0" index="0" speed="13.90" length="2.41" shape="185.35,398.35 186.59,399.17 187.00,400.00"/>
    </edge>
    <edge id=":1/2_24" function="internal">
        <lane id=":1/2_24_0" index="0" speed="13.90" length="2.41" shape="187.00,400.00 186.59,400.82 185.35,401.65"/>
    </edge>
    <edge id=":2/0_0" function="internal">
        <lane id=":2/0_0_0" index="0" speed="13.90" length="2.58" shape="388.45,13.15 388.35,12.45 388.05,11.95 387.55,11.65 386.85,11.55"/>
    </edge>
    <edge id=":2/0_1" function="internal">
        <lane id=":2/0_1_0" index="0" speed="13.90" length="7.90" shape="391.75,13.15 391.44,11.01 390.52,9.48 388.99,8.56 386.85,8.25"/>
    </edge>
    <edge id=":2/0_2" function="internal">
        <lane id=":2/0_2_0" index="0" speed="13.90" length="13.22" shape="395.05,13.15 394.54,9.56 393.00,7.00 390.44,5.46 386.85,4.95"/>
    </edge>
    <edge id=":2/0_3" function="internal">
        <lane id=":2/0_3_0" index="0" speed="13.90" length="18.55" shape="398.35,13.15 397.63,8.12 395.48,4.53 391.88,2.37 386.85,1.65"/>
    </edge>
    <edge id=":2/0_4" function="internal">
        <lane id=":2/0_4_0" index="0" speed="13.90" length="2.20" shape="398.35,13.15 399.17,11.91 399.81,11.59"/>
    </edge>
    <edge id=":2/0_10" function="internal">
        <lane id=":2/0_10_0" index="0" speed="13.90" length="2.62" shape="399.81,11.59 400.00,11.50 400.82,11.91 401.65,13.15"/>
    </edge>
    <edge id=":2/0_5" function="internal">
        <lane id=":2/0_5_0" index="0" speed="13.90" length="39.83" shape="386.85,-11.55 397.66,-10.01 405.38,-5.38 410.01,2.34 411.55,13.15"/>
    </edge>
    <edge id=":2/0_6" function="internal">
        <lane id=":2/0_6_0" index="0" speed="13.90" length="34.51" shape="386.85,-8.25 396.21,-6.91 402.90,-2.90 406.91,3.79 408.25,13.15"/>
    </edge>
    <edge id=":2/0_7" function="internal">
        <lane id=":2/0_7_0" index="0" speed="13.90" length="29.19" shape="386.85,-4.95 394.77,-3.82 400.43,-0.43 403.82,5.23 404.95,13.15"/>
    </edge>
    <edge id=":2/0_8" function="internal">
        <lane id=":2/0_8_0" index="0" speed="13.90" length="23.87" shape="386.85,-1.65 393.32,-0.73 397.95,2.05 400.72,6.67 401.65,13.15"/>
    </edge>
    <edge id=":2/0_9" function="internal">
        <lane id=":2/0_9_0" index="0" speed="13.90" length="2.69" shape="386.85,-1.65 388.09,-0.83 388.50,0.00 388.37,0.25"/>
    </edge>
    <edge id=":2/0_11" function="internal">
        <lane id=":2/0_11_0" index="0" speed="13.90" length="2.13" shape="388.37,0.25 388.09,0.83 386.85,1.65"/>
    </edge>
    <edge id=":2/1_0" function="internal">
        <lane id=":2/1_0_0" index="0" speed="13.90" length="5.00" shape="388.45,214.65 388.26,213.29 387.67,212.32 386.71,211.74 385.35,211.55"/>
    </edge>
    <edge id=":2/1_1" function="internal">
        <lane id=":2/1_1_0" index="0" speed="13.90" length="7.85" shape="388.45,214.65 388.26,211.85 387.67,209.85 386.71,208.65 385.35,208.25"/>
    </edge>
    <edge id=":2/1_2" function="internal">
        <lane id=":2/1_2_0" index="0" speed="13.90" length="29.30" shape="388.45,214.65 388.45,185.35"/>
        <lane id=":2/1_2_1" index="1" speed="13.90" length="29.30" shape="391.75,214.65 391.75,185.35"/>
        <lane id=":2/1_2_2" index="2" speed="13.90" length="29.30" shape="395.05,214.65 395.05,185.35"/>
        <lane id=":2/1_2_3" index="3" speed="13.90" length="29.30" shape="398.35,214.65 398.35,185.35"/>
    </edge>
    <edge id=":2/1_6" function="internal">
        <lane id=":2/1_6_0" index="0" speed="13.90" length="2.41" shape="398.35,214.65 399.17,213.41 400.00,213.00"/>
    </edge>
    <edge id=":2/1_20" function="internal">
        <lane id=":2/1_20_0" index="0" speed="13.90" length="2.41" shape="400.00,213.00 400.82,213.41 401.65,214.65"/>
    </edge>
    <edge id=":2/1_7" function="internal">
        <lane id=":2/1_7_0" index="0" speed="13.90" length="29.30" shape="411.55,185.35 411.55,214.65"/>
        <lane id=":2/1_7_1" index="1" speed="13.90" length="29.30" shape="408.25,185.35 408.25,214.65"/>
        <lane id=":2/1_7_2" index="2" speed="13.90" length="29.30" shape="404.95,185.35 404.95,214.65"/>
        <lane id=":2/1_7_3" index="3" speed="13.90" length="29.30" shape="401.65,185.35 401.65,214.65"/>
    </edge>
    <edge id=":2/1_11" function="internal">
        <lane id=":2/1_11_0" index="0" speed="13.90" length="10.16" shape="401.65,185.35 400.63,193.92 399.95,195.29"/>
    </edge>
    <edge id=":2/1_12" function="internal">
        <lane id=":2/1_12_0" index="0" speed="13.90" length="8.53" shape="401.65,185.35 400.63,192.48 399.95,193.62"/>
    </edge>
    <edge id=":2/1_13" function="internal">
        <lane id=":2/1_13_0" index="0" speed="13.90" length="2.41" shape="401.65,185.35 400.83,186.59 400.00,187.00"/>
    </edge>
    <edge id=":2/1_21" function="internal">
        <lane id=":2/1_21_0" index="0" speed="13.90" length="18.84" shape="399.95,195.29 397.57,200.05 392.48,203.72 385.35,204.95"/>
    </edge>
    <edge id=":2/1_22" function="internal">
        <lane id=":2/1_22_0" index="0" speed="13.90" length="17.76" shape="399.95,193.62 397.57,197.58 392.48,200.63 385.35,201.65"/>
    </edge>
    <edge id=":2/1_23" function="internal">
        <lane id=":2/1_23_0" index="0" speed="13.90" length="2.41" shape="400.00,187.00 399.18,186.59 398.35,185.35"/>
    </edge>
    <edge id=":2/1_14" function="internal">
        <lane id=":2/1_14_0" index="0" speed="13.90" length="5.00" shape="385.35,188.45 386.71,188.26 387.68,187.67 388.26,186.71 388.45,185.35"/>
    </edge>
    <edge id=":2/1_15" function="internal">
        <lane id=":2/1_15_0" index="0" speed="13.90" length="10.32" shape="385.35,191.75 388.15,191.35 390.15,190.15 391.35,188.15 391.75,185.35"/>
    </edge>
    <edge id=":2/1_16" function="internal">