<?xml version="1.0" encoding="iso-8859-1"?>

<configuration xmlns:xsi="http://www.w3.org/2001/XMLSchema-instance" xsi:noNamespaceSchemaLocation="http://sumo.sf.net/xsd/sumoConfiguration.xsd">

    <input>
        <net-file value="CAN2km.net.xml"/>
        <route-files value="CAN2Map1d1.rou.xml"/>
    </input>

    <time>
        <begin value="0"/>
        <end value="1000"/>
        <step-length value="0.1"/> 
         <!-- <step-length value="0.05"/> -->
    </time>

    <report>
        <no-step-log value="true"/>
    </report>

    <gui_only>
        <start value="true"/>
    </gui_only>

 	<processing>
 		<collision.action value="none" /> 
		<!--<lateral-resolution value="1.2" />-->
	</processing> 
</configuration>
