<?xml version="1.0" encoding="UTF-8"?>

<!-- generated on Fri May 31 08:38:49 2019 by SUMO netgenerate Version 0.32.0
<?xml version="1.0" encoding="UTF-8"?>

<configuration xmlns:xsi="http://www.w3.org/2001/XMLSchema-instance" xsi:noNamespaceSchemaLocation="http://sumo.dlr.de/xsd/netgenerateConfiguration.xsd">

    <grid_network>
        <grid value="true"/>
        <grid.x-number value="14"/>
        <grid.y-number value="7"/>
    </grid_network>

    <output>
        <output-file value="notls.net.xml"/>
    </output>

    <building_defaults>
        <default.lanenumber value="3"/>
        <default.speed value="50"/>
    </building_defaults>

</configuration>
-->

<net version="0.27" xmlns:xsi="http://www.w3.org/2001/XMLSchema-instance" xsi:noNamespaceSchemaLocation="http://sumo.dlr.de/xsd/net_file.xsd">

    <location netOffset="0.00,0.00" convBoundary="0.00,0.00,1300.00,600.00" origBoundary="0.00,0.00,1300.00,600.00" projParameter="!"/>

    <edge id=":0/0_0" function="internal">
        <lane id=":0/0_0_0" index="0" speed="50.00" length="29.19" shape="-8.25,9.85 -7.12,1.93 -3.72,-3.72 1.93,-7.12 9.85,-8.25"/>
    </edge>
    <edge id=":0/0_1" function="internal">
        <lane id=":0/0_1_0" index="0" speed="50.00" length="23.87" shape="-4.95,9.85 -4.02,3.38 -1.25,-1.25 3.38,-4.03 9.85,-4.95"/>
    </edge>
    <edge id=":0/0_2" function="internal">
        <lane id=":0/0_2_0" index="0" speed="50.00" length="18.55" shape="-1.65,9.85 -0.93,4.82 1.23,1.22 4.82,-0.93 9.85,-1.65"/>
    </edge>
    <edge id=":0/0_3" function="internal">
        <lane id=":0/0_3_0" index="0" speed="50.00" length="2.69" shape="-1.65,9.85 -0.83,8.61 0.00,8.20 0.25,8.33"/>
    </edge>
    <edge id=":0/0_8" function="internal">
        <lane id=":0/0_8_0" index="0" speed="50.00" length="2.13" shape="0.25,8.33 0.83,8.61 1.65,9.85"/>
    </edge>
    <edge id=":0/0_4" function="internal">
        <lane id=":0/0_4_0" index="0" speed="50.00" length="2.58" shape="9.85,8.25 9.15,8.35 8.65,8.65 8.35,9.15 8.25,9.85"/>
    </edge>
    <edge id=":0/0_5" function="internal">
        <lane id=":0/0_5_0" index="0" speed="50.00" length="7.90" shape="9.85,4.95 7.71,5.26 6.17,6.18 5.26,7.71 4.95,9.85"/>
    </edge>
    <edge id=":0/0_6" function="internal">
        <lane id=":0/0_6_0" index="0" speed="50.00" length="13.22" shape="9.85,1.65 6.26,2.16 3.70,3.70 2.16,6.26 1.65,9.85"/>
    </edge>
    <edge id=":0/0_7" function="internal">
        <lane id=":0/0_7_0" index="0" speed="50.00" length="2.20" shape="9.85,1.65 8.61,0.83 8.29,0.19"/>
    </edge>
    <edge id=":0/0_9" function="internal">
        <lane id=":0/0_9_0" index="0" speed="50.00" length="2.62" shape="8.29,0.19 8.20,0.00 8.61,-0.83 9.85,-1.65"/>
    </edge>
    <edge id=":0/1_0" function="internal">
        <lane id=":0/1_0_0" index="0" speed="50.00" length="22.70" shape="-8.25,111.35 -8.25,88.65"/>
        <lane id=":0/1_0_1" index="1" speed="50.00" length="22.70" shape="-4.95,111.35 -4.95,88.65"/>
        <lane id=":0/1_0_2" index="2" speed="50.00" length="22.70" shape="-1.65,111.35 -1.65,88.65"/>
    </edge>
    <edge id=":0/1_3" function="internal">
        <lane id=":0/1_3_0" index="0" speed="50.00" length="9.23" shape="-1.65,111.35 -0.84,104.22 0.05,102.36"/>
    </edge>
    <edge id=":0/1_4" function="internal">
        <lane id=":0/1_4_0" index="0" speed="50.00" length="7.47" shape="-1.65,111.35 -0.84,105.66 0.05,104.18"/>
    </edge>
    <edge id=":0/1_5" function="internal">
        <lane id=":0/1_5_0" index="0" speed="50.00" length="2.41" shape="-1.65,111.35 -0.83,110.11 0.00,109.70"/>
    </edge>
    <edge id=":0/1_15" function="internal">
        <lane id=":0/1_15_0" index="0" speed="50.00" length="14.45" shape="0.05,102.36 1.60,99.13 5.66,96.07 11.35,95.05"/>
    </edge>
    <edge id=":0/1_16" function="internal">
        <lane id=":0/1_16_0" index="0" speed="50.00" length="13.50" shape="0.05,104.18 1.60,101.60 5.66,99.16 11.35,98.35"/>
    </edge>
    <edge id=":0/1_17" function="internal">
        <lane id=":0/1_17_0" index="0" speed="50.00" length="2.41" shape="0.00,109.70 0.83,110.11 1.65,111.35"/>
    </edge>
    <edge id=":0/1_6" function="internal">
        <lane id=":0/1_6_0" index="0" speed="50.00" length="5.00" shape="11.35,108.25 9.99,108.44 9.03,109.03 8.44,109.99 8.25,111.35"/>
    </edge>
    <edge id=":0/1_7" function="internal">
        <lane id=":0/1_7_0" index="0" speed="50.00" length="26.29" shape="11.35,104.95 4.22,103.93 -0.87,100.88 -3.93,95.78 -4.95,88.65"/>
    </edge>
    <edge id=":0/1_8" function="internal">
        <lane id=":0/1_8_0" index="0" speed="50.00" length="20.97" shape="11.35,101.65 5.66,100.84 1.60,98.40 -0.84,94.34 -1.65,88.65"/>
    </edge>
    <edge id=":0/1_9" function="internal">
        <lane id=":0/1_9_0" index="0" speed="50.00" length="4.82" shape="11.35,101.65 10.11,100.82 9.70,100.00 10.11,99.17 11.35,98.35"/>
    </edge>
    <edge id=":0/1_10" function="internal">
        <lane id=":0/1_10_0" index="0" speed="50.00" length="5.00" shape="8.25,88.65 8.44,90.01 9.03,90.97 9.99,91.56 11.35,91.75"/>
    </edge>
    <edge id=":0/1_11" function="internal">
        <lane id=":0/1_11_0" index="0" speed="50.00" length="22.70" shape="8.25,88.65 8.25,111.35"/>
        <lane id=":0/1_11_1" index="1" speed="50.00" length="22.70" shape="4.95,88.65 4.95,111.35"/>
        <lane id=":0/1_11_2" index="2" speed="50.00" length="22.70" shape="1.65,88.65 1.65,111.35"/>
    </edge>
    <edge id=":0/1_14" function="internal">
        <lane id=":0/1_14_0" index="0" speed="50.00" length="2.41" shape="1.65,88.65 0.83,89.89 0.00,90.30"/>
    </edge>
    <edge id=":0/1_18" function="internal">
        <lane id=":0/1_18_0" index="0" speed="50.00" length="2.41" shape="0.00,90.30 -0.83,89.89 -1.65,88.65"/>
    </edge>
    <edge id=":0/2_0" function="internal">
        <lane id=":0/2_0_0" index="0" speed="50.00" length="22.70" shape="-8.25,211.35 -8.25,188.65"/>
        <lane id=":0/2_0_1" index="1" speed="50.00" length="22.70" shape="-4.95,211.35 -4.95,188.65"/>
        <lane id=":0/2_0_2" index="2" speed="50.00" length="22.70" shape="-1.65,211.35 -1.65,188.65"/>
    </edge>
    <edge id=":0/2_3" function="internal">
        <lane id=":0/2_3_0" index="0" speed="50.00" length="9.23" shape="-1.65,211.35 -0.84,204.22 0.05,202.36"/>
    </edge>
    <edge id=":0/2_4" function="internal">
        <lane id=":0/2_4_0" index="0" speed="50.00" length="7.47" shape="-1.65,211.35 -0.84,205.66 0.05,204.18"/>
    </edge>
    <edge id=":0/2_5" function="internal">
        <lane id=":0/2_5_0" index="0" speed="50.00" length="2.41" shape="-1.65,211.35 -0.83,210.11 0.00,209.70"/>
    </edge>
    <edge id=":0/2_15" function="internal">
        <lane id=":0/2_15_0" index="0" speed="50.00" length="14.45" shape="0.05,202.36 1.60,199.12 5.66,196.07 11.35,195.05"/>
    </edge>
    <edge id=":0/2_16" function="internal">
        <lane id=":0/2_16_0" index="0" speed="50.00" length="13.50" shape="0.05,204.18 1.60,201.60 5.66,199.16 11.35,198.35"/>
    </edge>
    <edge id=":0/2_17" function="internal">
        <lane id=":0/2_17_0" index="0" speed="50.00" length="2.41" shape="0.00,209.70 0.83,210.11 1.65,211.35"/>
    </edge>
    <edge id=":0/2_6" function="internal">
        <lane id=":0/2_6_0" index="0" speed="50.00" length="5.00" shape="11.35,208.25 9.99,208.44 9.03,209.03 8.44,209.99 8.25,211.35"/>
    </edge>
    <edge id=":0/2_7" function="internal">
        <lane id=":0/2_7_0" index="0" speed="50.00" length="26.29" shape="11.35,204.95 4.22,203.93 -0.87,200.87 -3.93,195.78 -4.95,188.65"/>
    </edge>
    <edge id=":0/2_8" function="internal">
        <lane id=":0/2_8_0" index="0" speed="50.00" length="20.97" shape="11.35,201.65 5.66,200.84 1.60,198.40 -0.84,194.34 -1.65,188.65"/>
    </edge>
    <edge id=":0/2_9" function="internal">
        <lane id=":0/2_9_0" index="0" speed="50.00" length="4.82" shape="11.35,201.65 10.11,200.83 9.70,200.00 10.11,199.18 11.35,198.35"/>
    </edge>
    <edge id=":0/2_10" function="internal">
        <lane id=":0/2_10_0" index="0" speed="50.00" length="5.00" shape="8.25,188.65 8.44,190.01 9.03,190.97 9.99,191.56 11.35,191.75"/>
    </edge>
    <edge id=":0/2_11" function="internal">
        <lane id=":0/2_11_0" index="0" speed="50.00" length="22.70" shape="8.25,188.65 8.25,211.35"/>
        <lane id=":0/2_11_1" index="1" speed="50.00" length="22.70" shape="4.95,188.65 4.95,211.35"/>
        <lane id=":0/2_11_2" index="2" speed="50.00" length="22.70" shape="1.65,188.65 1.65,211.35"/>
    </edge>
    <edge id=":0/2_14" function="internal">
        <lane id=":0/2_14_0" index="0" speed="50.00" length="2.41" shape="1.65,188.65 0.83,189.89 0.00,190.30"/>
    </edge>
    <edge id=":0/2_18" function="internal">
        <lane id=":0/2_18_0" index="0" speed="50.00" length="2.41" shape="0.00,190.30 -0.83,189.89 -1.65,188.65"/>
    </edge>
    <edge id=":0/3_0" function="internal">
        <lane id=":0/3_0_0" index="0" speed="50.00" length="22.70" shape="-8.25,311.35 -8.25,288.65"/>
        <lane id=":0/3_0_1" index="1" speed="50.00" length="22.70" shape="-4.95,311.35 -4.95,288.65"/>
        <lane id=":0/3_0_2" index="2" speed="50.00" length="22.70" shape="-1.65,311.35 -1.65,288.65"/>
    </edge>
    <edge id=":0/3_3" function="internal">
        <lane id=":0/3_3_0" index="0" speed="50.00" length="9.23" shape="-1.65,311.35 -0.84,304.22 0.05,302.36"/>
    </edge>
    <edge id=":0/3_4" function="internal">
        <lane id=":0/3_4_0" index="0" speed="50.00" length="7.47" shape="-1.65,311.35 -0.84,305.66 0.05,304.18"/>
    </edge>
    <edge id=":0/3_5" function="internal">
        <lane id=":0/3_5_0" index="0" speed="50.00" length="2.41" shape="-1.65,311.35 -0.83,310.11 0.00,309.70"/>
    </edge>
    <edge id=":0/3_15" function="internal">
        <lane id=":0/3_15_0" index="0" speed="50.00" length="14.45" shape="0.05,302.36 1.60,299.12 5.66,296.07 11.35,295.05"/>
    </edge>
    <edge id=":0/3_16" function="internal">
        <lane id=":0/3_16_0" index="0" speed="50.00" length="13.50" shape="0.05,304.18 1.60,301.60 5.66,299.16 11.35,298.35"/>
    </edge>
    <edge id=":0/3_17" function="internal">
        <lane id=":0/3_17_0" index="0" speed="50.00" length="2.41" shape="0.00,309.70 0.83,310.11 1.65,311.35"/>
    </edge>
    <edge id=":0/3_6" function="internal">
        <lane id=":0/3_6_0" index="0" speed="50.00" length="5.00" shape="11.35,308.25 9.99,308.44 9.03,309.02 8.44,309.99 8.25,311.35"/>
    </edge>
    <edge id=":0/3_7" function="internal">
        <lane id=":0/3_7_0" index="0" speed="50.00" length="26.29" shape="11.35,304.95 4.22,303.93 -0.87,300.88 -3.93,295.78 -4.95,288.65"/>
    </edge>
    <edge id=":0/3_8" function="internal">
        <lane id=":0/3_8_0" index="0" speed="50.00" length="20.97" shape="11.35,301.65 5.66,300.84 1.60,298.40 -0.84,294.34 -1.65,288.65"/>
    </edge>
    <edge id=":0/3_9" function="internal">
        <lane id=":0/3_9_0" index="0" speed="50.00" length="4.82" shape="11.35,301.65 10.11,300.83 9.70,300.00 10.11,299.18 11.35,298.35"/>
    </edge>
    <edge id=":0/3_10" function="internal">
        <lane id=":0/3_10_0" index="0" speed="50.00" length="5.00" shape="8.25,288.65 8.44,290.01 9.03,290.98 9.99,291.56 11.35,291.75"/>
    </edge>
    <edge id=":0/3_11" function="internal">
        <lane id=":0/3_11_0" index="0" speed="50.00" length="22.70" shape="8.25,288.65 8.25,311.35"/>
        <lane id=":0/3_11_1" index="1" speed="50.00" length="22.70" shape="4.95,288.65 4.95,311.35"/>
        <lane id=":0/3_11_2" index="2" speed="50.00" length="22.70" shape="1.65,288.65 1.65,311.35"/>
    </edge>
    <edge id=":0/3_14" function="internal">
        <lane id=":0/3_14_0" index="0" speed="50.00" length="2.41" shape="1.65,288.65 0.83,289.89 0.00,290.30"/>
    </edge>
    <edge id=":0/3_18" function="internal">
        <lane id=":0/3_18_0" index="0" speed="50.00" length="2.41" shape="0.00,290.30 -0.83,289.89 -1.65,288.65"/>
    </edge>
    <edge id=":0/4_0" function="internal">
        <lane id=":0/4_0_0" index="0" speed="50.00" length="22.70" shape="-8.25,411.35 -8.25,388.65"/>
        <lane id=":0/4_0_1" index="1" speed="50.00" length="22.70" shape="-4.95,411.35 -4.95,388.65"/>
        <lane id=":0/4_0_2" index="2" speed="50.00" length="22.70" shape="-1.65,411.35 -1.65,388.65"/>
    </edge>
    <edge id=":0/4_3" function="internal">
        <lane id=":0/4_3_0" index="0" speed="50.00" length="9.23" shape="-1.65,411.35 -0.84,404.22 0.05,402.36"/>
    </edge>
    <edge id=":0/4_4" function="internal">
        <lane id=":0/4_4_0" index="0" speed="50.00" length="7.47" shape="-1.65,411.35 -0.84,405.66 0.05,404.18"/>
    </edge>
    <edge id=":0/4_5" function="internal">
        <lane id=":0/4_5_0" index="0" speed="50.00" length="2.41" shape="-1.65,411.35 -0.83,410.11 0.00,409.70"/>
    </edge>
    <edge id=":0/4_15" function="internal">
        <lane id=":0/4_15_0" index="0" speed="50.00" length="14.45" shape="0.05,402.36 1.60,399.12 5.66,396.07 11.35,395.05"/>
    </edge>
    <edge id=":0/4_16" function="internal">
        <lane id=":0/4_16_0" index="0" speed="50.00" length="13.50" shape="0.05,404.18 1.60,401.60 5.66,399.16 11.35,398.35"/>
    </edge>
    <edge id=":0/4_17" function="internal">
        <lane id=":0/4_17_0" index="0" speed="50.00" length="2.41" shape="0.00,409.70 0.83,410.11 1.65,411.35"/>
    </edge>
    <edge id=":0/4_6" function="internal">
        <lane id=":0/4_6_0" index="0" speed="50.00" length="5.00" shape="11.35,408.25 9.99,408.44 9.03,409.02 8.44,409.99 8.25,411.35"/>
    </edge>
    <edge id=":0/4_7" function="internal">
        <lane id=":0/4_7_0" index="0" speed="50.00" length="26.29" shape="11.35,404.95 4.22,403.93 -0.87,400.88 -3.93,395.78 -4.95,388.65"/>
    </edge>
    <edge id=":0/4_8" function="internal">
        <lane id=":0/4_8_0" index="0" speed="50.00" length="20.97" shape="11.35,401.65 5.66,400.84 1.60,398.40 -0.84,394.34 -1.65,388.65"/>
    </edge>
    <edge id=":0/4_9" function="internal">
        <lane id=":0/4_9_0" index="0" speed="50.00" length="4.82" shape="11.35,401.65 10.11,400.83 9.70,400.00 10.11,399.18 11.35,398.35"/>
    </edge>
    <edge id=":0/4_10" function="internal">
        <lane id=":0/4_10_0" index="0" speed="50.00" length="5.00" shape="8.25,388.65 8.44,390.01 9.03,390.98 9.99,391.56 11.35,391.75"/>
    </edge>
    <edge id=":0/4_11" function="internal">
        <lane id=":0/4_11_0" index="0" speed="50.00" length="22.70" shape="8.25,388.65 8.25,411.35"/>
        <lane id=":0/4_11_1" index="1" speed="50.00" length="22.70" shape="4.95,388.65 4.95,411.35"/>
        <lane id=":0/4_11_2" index="2" speed="50.00" length="22.70" shape="1.65,388.65 1.65,411.35"/>
    </edge>
    <edge id=":0/4_14" function="internal">
        <lane id=":0/4_14_0" index="0" speed="50.00" length="2.41" shape="1.65,388.65 0.83,389.89 0.00,390.30"/>
    </edge>
    <edge id=":0/4_18" function="internal">
        <lane id=":0/4_18_0" index="0" speed="50.00" length="2.41" shape="0.00,390.30 -0.83,389.89 -1.65,388.65"/>
    </edge>
    <edge id=":0/5_0" function="internal">
        <lane id=":0/5_0_0" index="0" speed="50.00" length="22.70" shape="-8.25,511.35 -8.25,488.65"/>
        <lane id=":0/5_0_1" index="1" speed="50.00" length="22.70" shape="-4.95,511.35 -4.95,488.65"/>
        <lane id=":0/5_0_2" index="2" speed="50.00" length="22.70" shape="-1.65,511.35 -1.65,488.65"/>
    </edge>
    <edge id=":0/5_3" function="internal">
        <lane id=":0/5_3_0" index="0" speed="50.00" length="9.23" shape="-1.65,511.35 -0.84,504.22 0.05,502.36"/>
    </edge>
    <edge id=":0/5_4" function="internal">
        <lane id=":0/5_4_0" index="0" speed="50.00" length="7.47" shape="-1.65,511.35 -0.84,505.66 0.05,504.18"/>
    </edge>
    <edge id=":0/5_5" function="internal">
        <lane id=":0/5_5_0" index="0" speed="50.00" length="2.41" shape="-1.65,511.35 -0.83,510.11 0.00,509.70"/>
    </edge>
    <edge id=":0/5_15" function="internal">
        <lane id=":0/5_15_0" index="0" speed="50.00" length="14.45" shape="0.05,502.36 1.60,499.12 5.66,496.07 11.35,495.05"/>
    </edge>
    <edge id=":0/5_16" function="internal">
        <lane id=":0/5_16_0" index="0" speed="50.00" length="13.50" shape="0.05,504.18 1.60,501.60 5.66,499.16 11.35,498.35"/>
    </edge>
    <edge id=":0/5_17" function="internal">
        <lane id=":0/5_17_0" index="0" speed="50.00" length="2.41" shape="0.00,509.70 0.83,510.11 1.65,511.35"/>
    </edge>
    <edge id=":0/5_6" function="internal">
        <lane id=":0/5_6_0" index="0" speed="50.00" length="5.00" shape="11.35,508.25 9.99,508.44 9.03,509.02 8.44,509.99 8.25,511.35"/>
    </edge>
    <edge id=":0/5_7" function="internal">
        <lane id=":0/5_7_0" index="0" speed="50.00" length="26.29" shape="11.35,504.95 4.22,503.93 -0.87,500.88 -3.93,495.78 -4.95,488.65"/>
    </edge>
    <edge id=":0/5_8" function="internal">
        <lane id=":0/5_8_0" index="0" speed="50.00" length="20.97" shape="11.35,501.65 5.66,500.84 1.60,498.40 -0.84,494.34 -1.65,488.65"/>
    </edge>
    <edge id=":0/5_9" function="internal">
        <lane id=":0/5_9_0" index="0" speed="50.00" length="4.82" shape="11.35,501.65 10.11,500.82 9.70,500.00 10.11,499.18 11.35,498.35"/>
    </edge>
    <edge id=":0/5_10" function="internal">
        <lane id=":0/5_10_0" index="0" speed="50.00" length="5.00" shape="8.25,488.65 8.44,490.01 9.03,490.98 9.99,491.56 11.35,491.75"/>
    </edge>
    <edge id=":0/5_11" function="internal">
        <lane id=":0/5_11_0" index="0" speed="50.00" length="22.70" shape="8.25,488.65 8.25,511.35"/>
        <lane id=":0/5_11_1" index="1" speed="50.00" length="22.70" shape="4.95,488.65 4.95,511.35"/>
        <lane id=":0/5_11_2" index="2" speed="50.00" length="22.70" shape="1.65,488.65 1.65,511.35"/>
    </edge>
    <edge id=":0/5_14" function="internal">
        <lane id=":0/5_14_0" index="0" speed="50.00" length="2.41" shape="1.65,488.65 0.83,489.89 0.00,490.30"/>
    </edge>
    <edge id=":0/5_18" function="internal">
        <lane id=":0/5_18_0" index="0" speed="50.00" length="2.41" shape="0.00,490.30 -0.83,489.89 -1.65,488.65"/>
    </edge>
    <edge id=":0/6_0" function="internal">
        <lane id=":0/6_0_0" index="0" speed="50.00" length="29.19" shape="9.85,608.25 1.93,607.12 -3.72,603.73 -7.12,598.07 -8.25,590.15"/>
    </edge>
    <edge id=":0/6_1" function="internal">
        <lane id=":0/6_1_0" index="0" speed="50.00" length="23.87" shape="9.85,604.95 3.38,604.02 -1.25,601.25 -4.03,596.62 -4.95,590.15"/>
    </edge>
    <edge id=":0/6_2" function="internal">
        <lane id=":0/6_2_0" index="0" speed="50.00" length="18.55" shape="9.85,601.65 4.82,600.93 1.22,598.77 -0.93,595.18 -1.65,590.15"/>
    </edge>
    <edge id=":0/6_3" function="internal">
        <lane id=":0/6_3_0" index="0" speed="50.00" length="2.69" shape="9.85,601.65 8.61,600.82 8.20,600.00 8.33,599.75"/>
    </edge>
    <edge id=":0/6_8" function="internal">
        <lane id=":0/6_8_0" index="0" speed="50.00" length="2.13" shape="8.33,599.75 8.61,599.17 9.85,598.35"/>
    </edge>
    <edge id=":0/6_4" function="internal">
        <lane id=":0/6_4_0" index="0" speed="50.00" length="2.58" shape="8.25,590.15 8.35,590.85 8.65,591.35 9.15,591.65 9.85,591.75"/>
    </edge>
    <edge id=":0/6_5" function="internal">
        <lane id=":0/6_5_0" index="0" speed="50.00" length="7.90" shape="4.95,590.15 5.26,592.29 6.18,593.83 7.71,594.74 9.85,595.05"/>
    </edge>
    <edge id=":0/6_6" function="internal">
        <lane id=":0/6_6_0" index="0" speed="50.00" length="13.22" shape="1.65,590.15 2.16,593.74 3.70,596.30 6.26,597.84 9.85,598.35"/>
    </edge>
    <edge id=":0/6_7" function="internal">
        <lane id=":0/6_7_0" index="0" speed="50.00" length="2.20" shape="1.65,590.15 0.83,591.39 0.19,591.71"/>
    </edge>
    <edge id=":0/6_9" function="internal">
        <lane id=":0/6_9_0" index="0" speed="50.00" length="2.62" shape="0.19,591.71 0.00,591.80 -0.83,591.39 -1.65,590.15"/>
    </edge>
    <edge id=":1/0_0" function="internal">
        <lane id=":1/0_0_0" index="0" speed="50.00" length="5.00" shape="91.75,11.35 91.56,9.99 90.97,9.03 90.01,8.44 88.65,8.25"/>
    </edge>
    <edge id=":1/0_1" function="internal">
        <lane id=":1/0_1_0" index="0" speed="50.00" length="26.29" shape="95.05,11.35 96.07,4.22 99.12,-0.87 104.22,-3.93 111.35,-4.95"/>
    </edge>
    <edge id=":1/0_2" function="internal">
        <lane id=":1/0_2_0" index="0" speed="50.00" length="20.97" shape="98.35,11.35 99.16,5.66 101.60,1.60 105.66,-0.84 111.35,-1.65"/>
    </edge>
    <edge id=":1/0_3" function="internal">
        <lane id=":1/0_3_0" index="0" speed="50.00" length="4.82" shape="98.35,11.35 99.18,10.11 100.00,9.70 100.83,10.11 101.65,11.35"/>
    </edge>
    <edge id=":1/0_4" function="internal">
        <lane id=":1/0_4_0" index="0" speed="50.00" length="5.00" shape="111.35,8.25 109.99,8.44 109.03,9.03 108.44,9.99 108.25,11.35"/>
    </edge>
    <edge id=":1/0_5" function="internal">
        <lane id=":1/0_5_0" index="0" speed="50.00" length="22.70" shape="111.35,8.25 88.65,8.25"/>
        <lane id=":1/0_5_1" index="1" speed="50.00" length="22.70" shape="111.35,4.95 88.65,4.95"/>
        <lane id=":1/0_5_2" index="2" speed="50.00" length="22.70" shape="111.35,1.65 88.65,1.65"/>
    </edge>
    <edge id=":1/0_8" function="internal">
        <lane id=":1/0_8_0" index="0" speed="50.00" length="2.41" shape="111.35,1.65 110.11,0.83 109.70,0.00"/>
    </edge>
    <edge id=":1/0_15" function="internal">
        <lane id=":1/0_15_0" index="0" speed="50.00" length="2.41" shape="109.70,0.00 110.11,-0.83 111.35,-1.65"/>
    </edge>
    <edge id=":1/0_9" function="internal">
        <lane id=":1/0_9_0" index="0" speed="50.00" length="22.70" shape="88.65,-8.25 111.35,-8.25"/>
        <lane id=":1/0_9_1" index="1" speed="50.00" length="22.70" shape="88.65,-4.95 111.35,-4.95"/>
        <lane id=":1/0_9_2" index="2" speed="50.00" length="22.70" shape="88.65,-1.65 111.35,-1.65"/>
    </edge>
    <edge id=":1/0_12" function="internal">
        <lane id=":1/0_12_0" index="0" speed="50.00" length="9.23" shape="88.65,-1.65 95.78,-0.84 97.64,0.05"/>
    </edge>
    <edge id=":1/0_13" function="internal">
        <lane id=":1/0_13_0" index="0" speed="50.00" length="7.47" shape="88.65,-1.65 94.34,-0.84 95.82,0.05"/>
    </edge>
    <edge id=":1/0_14" function="internal">
        <lane id=":1/0_14_0" index="0" speed="50.00" length="2.41" shape="88.65,-1.65 89.89,-0.83 90.30,0.00"/>
    </edge>
    <edge id=":1/0_16" function="internal">
        <lane id=":1/0_16_0" index="0" speed="50.00" length="14.45" shape="97.64,0.05 100.87,1.60 103.93,5.66 104.95,11.35"/>
    </edge>
    <edge id=":1/0_17" function="internal">
        <lane id=":1/0_17_0" index="0" speed="50.00" length="13.50" shape="95.82,0.05 98.40,1.60 100.84,5.66 101.65,11.35"/>
    </edge>
    <edge id=":1/0_18" function="internal">
        <lane id=":1/0_18_0" index="0" speed="50.00" length="2.41" shape="90.30,0.00 89.89,0.83 88.65,1.65"/>
    </edge>
    <edge id=":1/1_0" function="internal">
        <lane id=":1/1_0_0" index="0" speed="50.00" length="5.00" shape="91.75,111.35 91.56,109.99 90.97,109.03 90.01,108.44 88.65,108.25"/>
    </edge>
    <edge id=":1/1_1" function="internal">
        <lane id=":1/1_1_0" index="0" speed="50.00" length="22.70" shape="91.75,111.35 91.75,88.65"/>
        <lane id=":1/1_1_1" index="1" speed="50.00" length="22.70" shape="95.05,111.35 95.05,88.65"/>
        <lane id=":1/1_1_2" index="2" speed="50.00" length="22.70" shape="98.35,111.35 98.35,88.65"/>
    </edge>
    <edge id=":1/1_4" function="internal">
        <lane id=":1/1_4_0" index="0" speed="50.00" length="7.47" shape="98.35,111.35 99.16,105.66 100.05,104.18"/>
    </edge>
    <edge id=":1/1_5" function="internal">
        <lane id=":1/1_5_0" index="0" speed="50.00" length="2.41" shape="98.35,111.35 99.18,110.11 100.00,109.70"/>
    </edge>
    <edge id=":1/1_24" function="internal">
        <lane id=":1/1_24_0" index="0" speed="50.00" length="13.50" shape="100.05,104.18 101.60,101.60 105.66,99.16 111.35,98.35"/>
    </edge>
    <edge id=":1/1_25" function="internal">
        <lane id=":1/1_25_0" index="0" speed="50.00" length="2.41" shape="100.00,109.70 100.83,110.11 101.65,111.35"/>
    </edge>
    <edge id=":1/1_6" function="internal">
        <lane id=":1/1_6_0" index="0" speed="50.00" length="5.00" shape="111.35,108.25 109.99,108.44 109.03,109.03 108.44,109.99 108.25,111.35"/>
    </edge>
    <edge id=":1/1_7" function="internal">
        <lane id=":1/1_7_0" index="0" speed="50.00" length="22.70" shape="111.35,108.25 88.65,108.25"/>
        <lane id=":1/1_7_1" index="1" speed="50.00" length="22.70" shape="111.35,104.95 88.65,104.95"/>
        <lane id=":1/1_7_2" index="2" speed="50.00" length="22.70" shape="111.35,101.65 88.65,101.65"/>
    </edge>
    <edge id=":1/1_10" function="internal">
        <lane id=":1/1_10_0" index="0" speed="50.00" length="20.97" shape="111.35,101.65 105.66,100.84 101.60,98.40 99.16,94.34 98.35,88.65"/>
    </edge>
    <edge id=":1/1_11" function="internal">
        <lane id=":1/1_11_0" index="0" speed="50.00" length="4.82" shape="111.35,101.65 110.11,100.82 109.70,100.00 110.11,99.17 111.35,98.35"/>
    </edge>
    <edge id=":1/1_12" function="internal">
        <lane id=":1/1_12_0" index="0" speed="50.00" length="5.00" shape="108.25,88.65 108.44,90.01 109.03,90.97 109.99,91.56 111.35,91.75"/>
    </edge>
    <edge id=":1/1_13" function="internal">
        <lane id=":1/1_13_0" index="0" speed="50.00" length="22.70" shape="108.25,88.65 108.25,111.35"/>
        <lane id=":1/1_13_1" index="1" speed="50.00" length="22.70" shape="104.95,88.65 104.95,111.35"/>
        <lane id=":1/1_13_2" index="2" speed="50.00" length="22.70" shape="101.65,88.65 101.65,111.35"/>
    </edge>
    <edge id=":1/1_16" function="internal">
        <lane id=":1/1_16_0" index="0" speed="50.00" length="7.47" shape="101.65,88.65 100.84,94.34 99.95,95.82"/>
    </edge>
    <edge id=":1/1_17" function="internal">
        <lane id=":1/1_17_0" index="0" speed="50.00" length="2.41" shape="101.65,88.65 100.82,89.89 100.00,90.30"/>
    </edge>
    <edge id=":1/1_26" function="internal">
        <lane id=":1/1_26_0" index="0" speed="50.00" length="13.50" shape="99.95,95.82 98.40,98.40 94.34,100.84 88.65,101.65"/>
    </edge>
    <edge id=":1/1_27" function="internal">
        <lane id=":1/1_27_0" index="0" speed="50.00" length="2.41" shape="100.00,90.30 99.17,89.89 98.35,88.65"/>
    </edge>
    <edge id=":1/1_18" function="internal">
        <lane id=":1/1_18_0" index="0" speed="50.00" length="5.00" shape="88.65,91.75 90.01,91.56 90.97,90.97 91.56,90.01 91.75,88.65"/>
    </edge>
    <edge id=":1/1_19" function="internal">
        <lane id=":1/1_19_0" index="0" speed="50.00" length="22.70" shape="88.65,91.75 111.35,91.75"/>
        <lane id=":1/1_19_1" index="1" speed="50.00" length="22.70" shape="88.65,95.05 111.35,95.05"/>
        <lane id=":1/1_19_2" index="2" speed="50.00" length="22.70" shape="88.65,98.35 111.35,98.35"/>
    </edge>
    <edge id=":1/1_22" function="internal">
        <lane id=":1/1_22_0" index="0" speed="50.00" length="20.97" shape="88.65,98.35 94.34,99.16 98.40,101.60 100.84,105.66 101.65,111.35"/>
    </edge>
    <edge id=":1/1_23" function="internal">
        <lane id=":1/1_23_0" index="0" speed="50.00" length="4.82" shape="88.65,98.35 89.89,99.18 90.30,100.00 89.89,100.83 88.65,101.65"/>
    </edge>
    <edge id=":1/2_0" function="internal">
        <lane id=":1/2_0_0" index="0" speed="50.00" length="5.00" shape="91.75,211.35 91.56,209.99 90.97,209.03 90.01,208.44 88.65,208.25"/>
    </edge>
    <edge id=":1/2_1" function="internal">
        <lane id=":1/2_1_0" index="0" speed="50.00" length="22.70" shape="91.75,211.35 91.75,188.65"/>
        <lane id=":1/2_1_1" index="1" speed="50.00" length="22.70" shape="95.05,211.35 95.05,188.65"/>
        <lane id=":1/2_1_2" index="2" speed="50.00" length="22.70" shape="98.35,211.35 98.35,188.65"/>
    </edge>
    <edge id=":1/2_4" function="internal">
        <lane id=":1/2_4_0" index="0" speed="50.00" length="7.47" shape="98.35,211.35 99.16,205.66 100.05,204.18"/>
    </edge>
    <edge id=":1/2_5" function="internal">
        <lane id=":1/2_5_0" index="0" speed="50.00" length="2.41" shape="98.35,211.35 99.18,210.11 100.00,209.70"/>
    </edge>
    <edge id=":1/2_24" function="internal">
        <lane id=":1/2_24_0" index="0" speed="50.00" length="13.50" shape="100.05,204.18 101.60,201.60 105.66,199.16 111.35,198.35"/>
    </edge>
    <edge id=":1/2_25" function="internal">
        <lane id=":1/2_25_0" index="0" speed="50.00" length="2.41" shape="100.00,209.70 100.83,210.11 101.65,211.35"/>
    </edge>
    <edge id=":1/2_6" function="internal">
        <lane id=":1/2_6_0" index="0" speed="50.00" length="5.00" shape="111.35,208.25 109.99,208.44 109.03,209.03 108.44,209.99 108.25,211.35"/>
    </edge>
    <edge id=":1/2_7" function="internal">
        <lane id=":1/2_7_0" index="0" speed="50.00" length="22.70" shape="111.35,208.25 88.65,208.25"/>
        <lane id=":1/2_7_1" index="1" speed="50.00" length="22.70" shape="111.35,204.95 88.65,204.95"/>
        <lane id=":1/2_7_2" index="2" speed="50.00" length="22.70" shape="111.35,201.65 88.65,201.65"/>
    </edge>
    <edge id=":1/2_10" function="internal">
        <lane id=":1/2_10_0" index="0" speed="50.00" length="20.97" shape="111.35,201.65 105.66,200.84 101.60,198.40 99.16,194.34 98.35,188.65"/>
    </edge>
    <edge id=":1/2_11" function="internal">
        <lane id=":1/2_11_0" index="0" speed="50.00" length="4.82" shape="111.35,201.65 110.11,200.83 109.70,200.00 110.11,199.18 111.35,198.35"/>
    </edge>
    <edge id=":1/2_12" function="internal">
        <lane id=":1/2_12_0" index="0" speed="50.00" length="5.00" shape="108.25,188.65 108.44,190.01 109.03,190.97 109.99,191.56 111.35,191.75"/>
    </edge>
    <edge id=":1/2_13" function="internal">