[General]
cmdenv-express-mode = true
cmdenv-autoflush = true
cmdenv-status-frequency = 1s
num-rngs = 1
real-time-limit = 1000s
rng-class = omnetpp::cMersenneTwister
seed-set = ${runnumber}
**.cmdenv-log-level = info

# number of client and server computers
*.n = 2


ned-path = . 
image-path = ../../images

network = TestRouting

##########################################################
#            Simulation parameters                       #
##########################################################
debug-on-errors = true
print-undisposed = true

sim-time-limit = 600s

**.scalar-recording = true
**.vector-recording = true

**.debug = false
**.coreDebug = false

*.playgroundSizeX = 1400m
*.playgroundSizeY = 700m
*.playgroundSizeZ = 50m


##########################################################
# Annotation parameters                                  #
##########################################################
*.annotations.draw = true

##########################################################
# Obstacle parameters                                    #
##########################################################

*.obstacles.debug = false
*.obstacles.obstacles = xmldoc("config.xml", "//AnalogueModel[@type='SimpleObstacleShadowing']/obstacles")

##########################################################
#            TraCIScenarioManager parameters             #
##########################################################

#XIANG ZHONG
*.manager.updateInterval = 0.5s
*.manager.host = "localhost"
*.manager.port = 9999
*.manager.autoShutdown = true
*.manager.launchConfig = xmldoc("test2.launchd.xml")

##########################################################
#                       RSU SETTINGS                     #
#                                                        #
#                                                        #
##########################################################

# original
#*.rsu[0].mobility.x = 2000
#*.rsu[0].mobility.y = 2000
#*.rsu[0].mobility.z = 3
#*.rsu[*].applType = "TraCIDemoRSU11p"
#*.rsu[*].appl.headerLength = 80 bit
#*.rsu[*].appl.sendBeacons = false
#*.rsu[*].appl.dataOnSch = false
#*.rsu[*].appl.beaconInterval = 1s
#*.rsu[*].appl.beaconUserPriority = 7
#*.rsu[*].appl.dataUserPriority = 5


#tcp --->server

**.rsu[*].numApps = 1
*.rsu[0].mobility.x = 200   #240
*.rsu[0].mobility.y = 130    #120
*.rsu[0].mobility.z = 1.895

*.rsu[1].mobility.x = 650   #240
*.rsu[1].mobility.y = 130    #120
*.rsu[1].mobility.z = 1.895

*.rsu[*].applType = "TraCIDemoRSU11p"
#**.rsu[*].app[*].typename = "TcpGenericServerApp"
**.rsu[*].app[*].typename = "UdpSink"
#**.rsu[*].app[0].startTime = uniform(15s,20s)
**.rsu[*].app[0].destPort = 1000
**.rsu[*].app[0].messageLength = 1000B
#**.node[*].app[0].sendInterval = 100ms
**.rsu[*].app[0].sendInterval = uniform(5s, 10s)
**.rsu[*].app[0].sendInterval = 100ms
**.rsu[*].app[0].destAddresses = "node[3]"



**.rsu[*].app[0].localAddress = ""
**.rsu[*].app[0].localPort = 1000
**.rsu[*].app[0].replyDelay = 0s



# tcp settings
**.app[*].dataTransferMode = "object"

# Ethernet NIC configuration
**.eth[*].queue.typename = "EtherQosQueue"
**.eth[*].queue.dataQueue.typename = "DropTailQueue" # in routers
**.eth[*].queue.dataQueue.frameCapacity = 10  # in routers
**.eth[*].mac.duplexMode = true

*.rsu[*].app[0].headerLength = 80 bit
*.rsu[*].app[0].sendBeacons = false
*.rsu[*].app[0].dataOnSch = false
*.rsu[*].app[0].beaconInterval = 1s
*.rsu[*].app[0].beaconUserPriority = 7
*.rsu[*].app[0].dataUserPriority = 5

##########################################################
#            11p specific parameters                     #
#                                                        #
#                    NIC-Settings                        #
##########################################################
*.connectionManager.sendDirect = true
#check
*.connectionManager.maxInterfDist = 700m
*.connectionManager.drawMaxIntfDist = true
*.**.nic.mac1609_4.useServiceChannel = false
#*.**.nic.mac1609_4.txPower = 10mW
*.node[*].nic.mac1609_4.txPower = 8mW
*.rsu[*].nic.mac1609_4.txPower = 8mW
*.**.nic.mac1609_4.bitrate = 6Mbps
#check
*.**.nic.phy80211p.sensitivity = -89dBm #-89
*.**.nic.phy80211p.useThermalNoise = false
*.**.nic.phy80211p.thermalNoise = -110dBm  #-110
*.**.nic.phy80211p.decider = xmldoc("config.xml")
#check
*.**.nic.phy80211p.analogueModels = xmldoc("config.xml")
*.**.nic.phy80211p.usePropagationDelay = true
*.**.nic.phy80211p.antenna = xmldoc("antenna.xml", "/root/Antenna[@id='monopole']")

##########################################################
#                    WaveAppLayer                        #
##########################################################

#original 
*.node[*].applType = "TraCIDemo11p" 
*.node[*].appl.headerLength = 80 bit
*.node[*].appl.sendBeacons = false
*.node[*].appl.dataOnSch = false
*.node[*].appl.beaconInterval = 1s
*.node[*].numApps = 1

#UDP staff
**.node[*].app[*].typename = "UdpBasicApp"
**.node[*].app[0].destPort = 1000
**.node[*].app[0].messageLength = 1000B
**.node[*].app[0].sendInterval = 100ms
#**.node[*].app[0].sendInterval = uniform(5s, 10s)
**.node[*].app[0].destAddresses = "rsu[0]"
#END

#TCP staff
#**.node[*].app[*].typename = "TelnetApp"
#**.node[*].app[0].destPort = 1000
#**.node[*].app[0].localAddress = ""
#**.node[*].app[0].localPort = 1000
#**.node[*].app[0].connectAddress = "rsu[0]"
#END
**.node[*].app[0].connectPort = 1000
**.node[*].app[0].startTime = uniform(4000s,5000s)
#**.node[0].app[0].startTime = uniform(170s,175s)
#**.node[1].app[0].startTime = uniform(175s,180s)
#**.node[2].app[0].startTime = uniform(180s,185s)
#**.node[3].app[0].startTime = uniform(185s,190s)
**.node[*].app[0].sendInterval = 200ms
**.node[*].app[0].numCommands = int(exponential(10))
**.node[*].app[0].commandLength = intWithUnit(exponential(10B))
**.node[*].app[0].keyPressDelay = exponential(0.1s)
**.node[*].app[0].commandOutputLength = intWithUnit(exponential(40B))
**.node[*].app[0].thinkTime = truncnormal(2s,3s)
**.node[*].app[0].idleInterval = truncnormal(3600s,1200s)
**.node[*].app[0].reconnectInterval = 30s


##########################################################
#                      Mobility                          #
##########################################################
*.node[*].veinsmobilityType.debug = true
*.node[*].veinsmobility.x = 0
*.node[*].veinsmobility.y = 0
*.node[*].veinsmobility.z = 1.895

*.node[*0].veinsmobility.accidentCount = 1
*.node[*0].veinsmobility.accidentStart = 75s
*.node[*0].veinsmobility.accidentDuration = 50s

[Config Default]

[Config WithBeaconing]
*.rsu[*].appl.sendBeacons = true
*.node[*].appl.sendBeacons = true

[Config WithChannelSwitching]
*.**.nic.mac1609_4.useServiceChannel = true
*.node[*].appl.dataOnSch = true
*.rsu[*].appl.dataOnSch = true
