<?xml version="1.0"?>
<!-- 
194 Cars leaving the Computer Science Building and campus of the University of Erlangen-Nuremberg
Copyright (C) 2008 Christoph Sommer <christoph.sommer@informatik.uni-erlangen.de>
Licensed under the Creative Commons Attribution-ShareAlike 2.0 license <http://creativecommons.org/licenses/by-sa/2.0/>
-->
<routes>
    <vType accel="8" decel="4.5" id="CarA" length="5" minGap="2.5" maxSpeed="100" sigma="0.5" guiShape="passenger"/>
    <vType accel="2.6" decel="4.5" id="CarB" length="5" minGap="2.5" maxSpeed="0" sigma="0.5" guiShape="passenger"/>
    <vType accel="2.6" decel="4.5" id="CarC" length="5" minGap="2.5" maxSpeed="1" sigma="0.5" guiShape="passenger"/>
<!--
    <flow id="0/1-0" type="CarA" begin="0" end="7200" period="3" departPos="0" departSpeed="max" departLane="free" >
        <route edges = "0/1to1/1 1/1to1/0"/>
    </flow>
-->    

<route id="route01" edges="0/3to1/3 1/3to2/3 2/3to2/4"/>
<route id="route02" edges="0/2to1/2 1/2to2/2 2/2to3/2 3/2to4/2 4/2to5/2 5/2to6/2"/>
<route id="route03" edges="3/0to3/1 3/1to3/2 3/2to3/3 3/3to3/4"/>
<route id="route04" edges="0/1to1/1 1/1to2/1 2/1to3/1 3/1to4/1 4/1to5/1 5/1to6/1"/>
<route id="route05" edges="0/0to1/0 1/0to2/0 2/0to3/0 3/0to4/0 4/0to5/0 5/0to6/0"/>
<route id="route06" edges="0/2to1/2 1/2to2/2 2/2to3/2 3/2to4/2 4/2to5/2 5/2to6/2"/>
<route id="route07" edges="1/0to2/0 2/0to3/0 3/0to4/0 4/0to5/0 5/0to6/0"/>
<route id="route08" edges="0/1to1/1 1/1to2/1 2/1to3/1 3/1to4/1 4/1to5/1 5/1to6/1"/>
<route id="route09" edges="1/0to2/0 2/0to3/0 3/0to4/0 4/0to5/0 5/0to6/0"/>

<flow id="flow1" type="CarB" route="route06" begin="0"  period="0.002" number="1" departSpeed ="max" />

 

<!--

<flow id="flow0" type="CarA" route="route08" begin="3" period="3" number="1" departSpeed="max"/>

<flow id="flow2" type="CarC" route="route05" begin="15" period="3" number="2"/>
<flow id="flow1" type="CarB" route="route06" begin="0" end ="1" period="0" number="2"/>
<flow id="flow2" type="CarB" route="route06" begin="0" period="0" number="1"/>

-->

<!--



<flow id="flow2" type="CarB" route="route03" begin="1" period="3" number="1"/>
<vehicle depart="54000" departPos = "0" departLane = "free" id="veh0" route="route01" type="CarA" color="1,0,0" number ="2"/>
<vehicle depart="20000" departPos = "0" departLane = "free" id="veh1" route="route01" type="CarA" color="1,0,0"/>


<flow id="0/1-2" type="CarA" begin="0" departPos="0" departSpeed="max" departLane="free" route ="route01" >
</flow>

<flow id="0/1-1" type="CarA" begin="0" departPos="0" departSpeed="0" departLane="free" route ="route02" ">
</flow>



<flow id="0/1-1" type="CarA" begin="0" end="7200" period="3" departPos="0" departSpeed="max" departLane="free" route ="route02">
</flow>

    <flow id="0/1-1" type="CarA" begin="0" end="7200" period="3" departPos="0" departSpeed="max" departLane="free" >
        <route edges = "0/1to1/1 1/1to1/2"/>
    </flow>
        
    <flow id="0/1-2" type="CarA" begin="0" end="7200" period="3" departPos="0" departSpeed="max" departLane="free" >
        <route edges = "0/1to1/1 1/1to2/1"/>
    </flow>
    <flow id="1/0-0" type="CarA" begin="0" end="7200" period="15" departPos="0" departSpeed="max" departLane="free" >
        <route edges = "1/0to1/1 1/1to0/1"/>
    </flow>
    <flow id="1/0-1" type="CarA" begin="0" end="7200" period="15" departPos="0" departSpeed="max" departLane="free" >
        <route edges = "1/0to1/1 1/1to1/2"/>
    </flow>
    <flow id="1/0-2" type="CarA" begin="0" end="7200" period="15" departPos="0" departSpeed="max" departLane="free" >
        <route edges = "1/0to1/1 1/1to2/1"/>
    </flow>
    <flow id="1/2-0" type="CarA" begin="0" end="7200" period="15" departPos="0" departSpeed="max" departLane="free" >
        <route edges = "1/2to1/1 1/1to1/0"/>
    </flow>
    <flow id="1/2-1" type="CarA" begin="0" end="7200" period="15" departPos="0" departSpeed="max" departLane="free" >
        <route edges = "1/2to1/1 1/1to0/1"/>
    </flow>
    <flow id="1/2-2" type="CarA" begin="0" end="7200" period="15" departPos="0" departSpeed="max" departLane="free" >
        <route edges = "1/2to1/1 1/1to2/1"/>
    </flow>
    <flow id="2/1-0" type="CarA" begin="0" end="7200" period="3" departPos="0" departSpeed="max" departLane="free" >
        <route edges = "2/1to1/1 1/1to1/0"/>
    </flow>
    <flow id="2/1-1" type="CarA" begin="0" end="7200" period="3" departPos="0" departSpeed="max" departLane="free" >
        <route edges = "2/1to1/1 1/1to0/1"/>
    </flow>
    <flow id="2/1-2" type="CarA" begin="0" end="7200" period="3" departPos="0" departSpeed="max" departLane="free" >
        <route edges = "2/1to1/1 1/1to1/2"/>
    </flow>
-->

</routes>
